
     RDKit          2D

 21 20  0  0  0  0  0  0  0  0999 V2000
   10.4844    2.5992    0.0000 C   0  0  0  0  0  0  0  0  0  0  0  0
    8.9865    2.5199    0.0000 C   0  0  0  0  0  0  0  0  0  0  0  0
    8.3062    1.1830    0.0000 C   0  0  0  0  0  0  0  0  0  0  0  0
    6.8083    1.1037    0.0000 C   0  0  0  0  0  0  0  0  0  0  0  0
    6.1280   -0.2331    0.0000 C   0  0  0  0  0  0  0  0  0  0  0  0
    4.6301   -0.3124    0.0000 C   0  0  0  0  0  0  0  0  0  0  0  0
    3.8125    0.9452    0.0000 O   0  0  0  0  0  0  0  0  0  0  0  0
    3.9498   -1.6493    0.0000 C   0  0  0  0  0  0  0  0  0  0  0  0
    2.4519   -1.7286    0.0000 C   0  0  0  0  0  0  0  0  0  0  0  0
    1.7717   -3.0654    0.0000 C   0  0  0  0  0  0  0  0  0  0  0  0
    0.2738   -3.1447    0.0000 C   0  0  0  0  0  0  0  0  0  0  0  0
   -0.5439   -1.8872    0.0000 C   0  0  0  0  0  0  0  0  0  0  0  0
   -2.0418   -1.9664    0.0000 C   0  0  0  0  0  0  0  0  0  0  0  0
   -2.8594   -0.7089    0.0000 C   0  0  0  0  0  0  0  0  0  0  0  0
   -4.3573   -0.7882    0.0000 C   0  0  0  0  0  0  0  0  0  0  0  0
   -5.1749    0.4694    0.0000 C   0  0  0  0  0  0  0  0  0  0  0  0
   -6.6728    0.3901    0.0000 C   0  0  0  0  0  0  0  0  0  0  0  0
   -7.4904    1.6477    0.0000 C   0  0  0  0  0  0  0  0  0  0  0  0
   -8.9883    1.5684    0.0000 C   0  0  0  0  0  0  0  0  0  0  0  0
   -9.6686    0.2316    0.0000 O   0  0  0  0  0  0  0  0  0  0  0  0
   -9.8059    2.8260    0.0000 O   0  0  0  0  0  0  0  0  0  0  0  0
  1  2  1  0
  2  3  1  0
  3  4  1  0
  4  5  1  0
  5  6  1  0
  6  7  1  0
  6  8  1  0
  8  9  2  0
  9 10  1  0
 10 11  2  0
 11 12  1  0
 12 13  1  0
 13 14  1  0
 14 15  1  0
 15 16  1  0
 16 17  1  0
 17 18  1  0
 18 19  1  0
 19 20  2  0
 19 21  1  0
M  END
