
     RDKit          2D

 23 23  0  0  0  0  0  0  0  0999 V2000
   -6.0382   -4.0374    0.0000 C   0  0  0  0  0  0  0  0  0  0  0  0
   -4.5678   -4.3340    0.0000 C   0  0  0  0  0  0  0  0  0  0  0  0
   -3.5757   -3.2090    0.0000 C   0  0  0  0  0  0  0  0  0  0  0  0
   -2.1053   -3.5057    0.0000 C   0  0  0  0  0  0  0  0  0  0  0  0
   -1.1132   -2.3806    0.0000 C   0  0  0  0  0  0  0  0  0  0  0  0
    0.3571   -2.6773    0.0000 C   0  0  0  0  0  0  0  0  0  0  0  0
    1.3493   -1.5523    0.0000 C   0  0  0  0  0  0  0  0  0  0  0  0
    2.8196   -1.8490    0.0000 C   0  0  0  0  0  0  0  0  0  0  0  0
    3.8117   -0.7239    0.0000 C   0  0  0  0  0  0  0  0  0  0  0  0
    5.3051   -0.8653    0.0000 C   0  0  0  0  0  0  0  0  0  0  0  0
    6.0685   -2.1565    0.0000 O   0  0  0  0  0  0  0  0  0  0  0  0
    5.9010    0.5113    0.0000 C   0  0  0  0  0  0  0  0  0  0  0  0
    4.7759    1.5034    0.0000 C   0  0  0  0  0  0  0  0  0  0  0  0
    3.4847    0.7400    0.0000 C   0  0  0  0  0  0  0  0  0  0  0  0
    2.1082    1.3359    0.0000 C   0  0  0  0  0  0  0  0  0  0  0  0
    1.9359    2.8260    0.0000 C   0  0  0  0  0  0  0  0  0  0  0  0
    0.5594    3.4219    0.0000 C   0  0  0  0  0  0  0  0  0  0  0  0
   -0.6450    2.5277    0.0000 C   0  0  0  0  0  0  0  0  0  0  0  0
   -2.0215    3.1236    0.0000 C   0  0  0  0  0  0  0  0  0  0  0  0
   -3.2258    2.2294    0.0000 C   0  0  0  0  0  0  0  0  0  0  0  0
   -4.6024    2.8253    0.0000 C   0  0  0  0  0  0  0  0  0  0  0  0
   -4.7746    4.3154    0.0000 O   0  0  0  0  0  0  0  0  0  0  0  0
   -5.8067    1.9311    0.0000 O   0  0  0  0  0  0  0  0  0  0  0  0
  1  2  1  0
  2  3  1  0
  3  4  1  0
  4  5  1  0
  5  6  1  0
  6  7  2  0
  7  8  1  0
  8  9  2  0
  9 10  1  0
 10 11  2  0
 10 12  1  0
 12 13  2  0
 13 14  1  0
 14 15  1  1
 15 16  1  0
 16 17  2  0
 17 18  1  0
 18 19  1  0
 19 20  1  0
 20 21  1  0
 21 22  2  0
 21 23  1  0
 14  9  1  0
M  END
