
     RDKit          2D

 25 24  0  0  0  0  0  0  0  0999 V2000
  -10.8984    2.1007    0.0000 C   0  0  0  0  0  0  0  0  0  0  0  0
   -9.4732    1.6329    0.0000 C   0  0  0  0  0  0  0  0  0  0  0  0
   -8.3555    2.6332    0.0000 C   0  0  0  0  0  0  0  0  0  0  0  0
   -6.9303    2.1654    0.0000 C   0  0  0  0  0  0  0  0  0  0  0  0
   -6.6229    0.6973    0.0000 C   0  0  0  0  0  0  0  0  0  0  0  0
   -5.1977    0.2295    0.0000 C   0  0  0  0  0  0  0  0  0  0  0  0
   -4.0799    1.2298    0.0000 O   0  0  0  0  0  0  0  0  0  0  0  0
   -4.8902   -1.2387    0.0000 C   0  0  0  0  0  0  0  0  0  0  0  0
   -3.4650   -1.7065    0.0000 C   0  0  0  0  0  0  0  0  0  0  0  0
   -3.1575   -3.1746    0.0000 C   0  0  0  0  0  0  0  0  0  0  0  0
   -1.7324   -3.6424    0.0000 C   0  0  0  0  0  0  0  0  0  0  0  0
   -0.6146   -2.6421    0.0000 C   0  0  0  0  0  0  0  0  0  0  0  0
    0.8106   -3.1099    0.0000 C   0  0  0  0  0  0  0  0  0  0  0  0
    1.9283   -2.1095    0.0000 C   0  0  0  0  0  0  0  0  0  0  0  0
    1.6208   -0.6414    0.0000 C   0  0  0  0  0  0  0  0  0  0  0  0
    2.7385    0.3590    0.0000 C   0  0  0  0  0  0  0  0  0  0  0  0
    4.1637   -0.1088    0.0000 C   0  0  0  0  0  0  0  0  0  0  0  0
    4.4712   -1.5770    0.0000 C   0  0  0  0  0  0  0  0  0  0  0  0
    5.8964   -2.0448    0.0000 C   0  0  0  0  0  0  0  0  0  0  0  0
    7.0141   -1.0444    0.0000 C   0  0  0  0  0  0  0  0  0  0  0  0
    6.7066    0.4237    0.0000 C   0  0  0  0  0  0  0  0  0  0  0  0
    7.8244    1.4241    0.0000 C   0  0  0  0  0  0  0  0  0  0  0  0
    7.5169    2.8922    0.0000 C   0  0  0  0  0  0  0  0  0  0  0  0
    6.0917    3.3600    0.0000 O   0  0  0  0  0  0  0  0  0  0  0  0
    8.6346    3.8926    0.0000 O   0  0  0  0  0  0  0  0  0  0  0  0
  1  2  1  0
  2  3  1  0
  3  4  2  0
  4  5  1  0
  5  6  1  0
  6  7  2  0
  6  8  1  0
  8  9  2  0
  9 10  1  0
 10 11  2  0
 11 12  1  0
 12 13  1  0
 13 14  2  0
 14 15  1  0
 15 16  1  0
 16 17  2  0
 17 18  1  0
 18 19  1  0
 19 20  2  0
 20 21  1  0
 21 22  1  0
 22 23  1  0
 23 24  2  0
 23 25  1  0
M  END
