
     RDKit          2D

 18 19  0  0  0  0  0  0  0  0999 V2000
   -2.1372   -2.6369    0.0000 O   0  0  0  0  0  0  0  0  0  0  0  0
   -1.9566   -1.1478    0.0000 C   0  0  0  0  0  0  0  0  0  0  0  0
   -0.5767   -0.5596    0.0000 C   0  0  0  0  0  0  0  0  0  0  0  0
    0.6226   -1.4606    0.0000 C   0  0  0  0  0  0  0  0  0  0  0  0
    2.0024   -0.8724    0.0000 C   0  0  0  0  0  0  0  0  0  0  0  0
    3.2017   -1.7733    0.0000 C   0  0  0  0  0  0  0  0  0  0  0  0
    4.5816   -1.1852    0.0000 C   0  0  0  0  0  0  0  0  0  0  0  0
    4.7622    0.3039    0.0000 C   0  0  0  0  0  0  0  0  0  0  0  0
    6.1421    0.8921    0.0000 O   0  0  0  0  0  0  0  0  0  0  0  0
    3.5629    1.2049    0.0000 C   0  0  0  0  0  0  0  0  0  0  0  0
    3.7435    2.6940    0.0000 O   0  0  0  0  0  0  0  0  0  0  0  0
    2.1830    0.6167    0.0000 C   0  0  0  0  0  0  0  0  0  0  0  0
   -3.1559   -0.2469    0.0000 C   0  0  0  0  0  0  0  0  0  0  0  0
   -2.9754    1.2422    0.0000 C   0  0  0  0  0  0  0  0  0  0  0  0
   -4.1747    2.1431    0.0000 C   0  0  0  0  0  0  0  0  0  0  0  0
   -5.5545    1.5550    0.0000 C   0  0  0  0  0  0  0  0  0  0  0  0
   -5.7351    0.0659    0.0000 C   0  0  0  0  0  0  0  0  0  0  0  0
   -4.5358   -0.8351    0.0000 C   0  0  0  0  0  0  0  0  0  0  0  0
  1  2  2  0
  2  3  1  0
  3  4  2  0
  4  5  1  0
  5  6  1  0
  6  7  2  0
  7  8  1  0
  8  9  1  0
  8 10  2  0
 10 11  1  0
 10 12  1  0
  2 13  1  0
 13 14  2  0
 14 15  1  0
 15 16  2  0
 16 17  1  0
 17 18  2  0
 12  5  2  0
 18 13  1  0
M  END
