
     RDKit          2D

 21 20  0  0  0  0  0  0  0  0999 V2000
    9.6596    3.5360    0.0000 C   0  0  0  0  0  0  0  0  0  0  0  0
    9.3841    2.0615    0.0000 C   0  0  0  0  0  0  0  0  0  0  0  0
    7.9694    1.5628    0.0000 C   0  0  0  0  0  0  0  0  0  0  0  0
    7.6939    0.0884    0.0000 C   0  0  0  0  0  0  0  0  0  0  0  0
    6.2792   -0.4103    0.0000 C   0  0  0  0  0  0  0  0  0  0  0  0
    6.0037   -1.8848    0.0000 C   0  0  0  0  0  0  0  0  0  0  0  0
    4.5890   -2.3834    0.0000 C   0  0  0  0  0  0  0  0  0  0  0  0
    3.4498   -1.4076    0.0000 C   0  0  0  0  0  0  0  0  0  0  0  0
    2.0351   -1.9062    0.0000 C   0  0  0  0  0  0  0  0  0  0  0  0
    0.8960   -0.9304    0.0000 C   0  0  0  0  0  0  0  0  0  0  0  0
    1.1715    0.5441    0.0000 O   0  0  0  0  0  0  0  0  0  0  0  0
   -0.5187   -1.4290    0.0000 C   0  0  0  0  0  0  0  0  0  0  0  0
   -1.6579   -0.4532    0.0000 C   0  0  0  0  0  0  0  0  0  0  0  0
   -3.0726   -0.9518    0.0000 C   0  0  0  0  0  0  0  0  0  0  0  0
   -4.2118    0.0240    0.0000 C   0  0  0  0  0  0  0  0  0  0  0  0
   -5.6265   -0.4747    0.0000 C   0  0  0  0  0  0  0  0  0  0  0  0
   -6.7657    0.5012    0.0000 C   0  0  0  0  0  0  0  0  0  0  0  0
   -8.1804    0.0025    0.0000 C   0  0  0  0  0  0  0  0  0  0  0  0
   -9.3196    0.9784    0.0000 C   0  0  0  0  0  0  0  0  0  0  0  0
   -9.0440    2.4528    0.0000 O   0  0  0  0  0  0  0  0  0  0  0  0
  -10.7342    0.4797    0.0000 O   0  0  0  0  0  0  0  0  0  0  0  0
  1  2  1  0
  2  3  1  0
  3  4  1  0
  4  5  1  0
  5  6  1  0
  6  7  2  0
  7  8  1  0
  8  9  2  0
  9 10  1  0
 10 11  1  0
 10 12  1  0
 12 13  1  0
 13 14  1  0
 14 15  1  0
 15 16  1  0
 16 17  1  0
 17 18  1  0
 18 19  1  0
 19 20  2  0
 19 21  1  0
M  END
