
     RDKit          2D

 24 24  0  0  0  0  0  0  0  0999 V2000
    8.3554   -1.3212    0.0000 C   0  0  0  0  0  0  0  0  0  0  0  0
    6.9714   -0.7428    0.0000 C   0  0  0  0  0  0  0  0  0  0  0  0
    5.7785   -1.6522    0.0000 C   0  0  0  0  0  0  0  0  0  0  0  0
    5.9696   -3.1400    0.0000 C   0  0  0  0  0  0  0  0  0  0  0  0
    4.3945   -1.0739    0.0000 C   0  0  0  0  0  0  0  0  0  0  0  0
    3.2016   -1.9832    0.0000 O   0  0  0  0  0  0  0  0  0  0  0  0
    4.2034    0.4139    0.0000 C   0  0  0  0  0  0  0  0  0  0  0  0
    2.8194    0.9923    0.0000 C   0  0  0  0  0  0  0  0  0  0  0  0
    1.6265    0.0829    0.0000 C   0  0  0  0  0  0  0  0  0  0  0  0
    0.2425    0.6613    0.0000 C   0  0  0  0  0  0  0  0  0  0  0  0
   -0.9504   -0.2481    0.0000 C   0  0  0  0  0  0  0  0  0  0  0  0
   -2.3344    0.3303    0.0000 C   0  0  0  0  0  0  0  0  0  0  0  0
   -3.7184    0.9086    0.0000 C   0  0  0  0  0  0  0  0  0  0  0  0
   -5.1024    1.4870    0.0000 C   0  0  0  0  0  0  0  0  0  0  0  0
   -6.2953    0.5776    0.0000 C   0  0  0  0  0  0  0  0  0  0  0  0
   -7.6793    1.1560    0.0000 C   0  0  0  0  0  0  0  0  0  0  0  0
   -8.8722    0.2466    0.0000 C   0  0  0  0  0  0  0  0  0  0  0  0
  -10.0651   -0.6628    0.0000 C   0  0  0  0  0  0  0  0  0  0  0  0
  -11.2580   -1.5722    0.0000 C   0  0  0  0  0  0  0  0  0  0  0  0
  -12.6420   -0.9938    0.0000 O   0  0  0  0  0  0  0  0  0  0  0  0
    5.3963    1.3233    0.0000 C   0  0  0  0  0  0  0  0  0  0  0  0
    5.2052    2.8111    0.0000 C   0  0  0  0  0  0  0  0  0  0  0  0
    6.7803    0.7449    0.0000 C   0  0  0  0  0  0  0  0  0  0  0  0
    7.9732    1.6543    0.0000 O   0  0  0  0  0  0  0  0  0  0  0  0
  1  2  1  0
  2  3  2  0
  3  4  1  0
  3  5  1  0
  5  6  2  0
  5  7  1  0
  7  8  1  0
  8  9  1  0
  9 10  1  0
 10 11  1  0
 11 12  1  0
 12 13  3  0
 13 14  1  0
 14 15  1  0
 15 16  1  0
 16 17  1  0
 17 18  3  0
 18 19  1  0
 19 20  1  0
  7 21  2  0
 21 22  1  0
 21 23  1  0
 23 24  2  0
 23  2  1  0
M  END
