
     RDKit          2D

 29 31  0  0  0  0  0  0  0  0999 V2000
  -10.5100   -1.2295    0.0000 C   0  0  0  0  0  0  0  0  0  0  0  0
   -9.4972   -0.1231    0.0000 C   0  0  0  0  0  0  0  0  0  0  0  0
   -8.0326   -0.4470    0.0000 C   0  0  0  0  0  0  0  0  0  0  0  0
   -7.0198    0.6594    0.0000 C   0  0  0  0  0  0  0  0  0  0  0  0
   -5.5551    0.3355    0.0000 C   0  0  0  0  0  0  0  0  0  0  0  0
   -4.5423    1.4419    0.0000 C   0  0  0  0  0  0  0  0  0  0  0  0
   -3.0777    1.1180    0.0000 C   0  0  0  0  0  0  0  0  0  0  0  0
   -2.7538    2.5826    0.0000 C   0  0  0  0  0  0  0  0  0  0  0  0
   -3.4016   -0.3466    0.0000 C   0  0  0  0  0  0  0  0  0  0  0  0
   -1.6131    0.7941    0.0000 C   0  0  0  0  0  0  0  0  0  0  0  0
   -0.6003    1.9005    0.0000 C   0  0  0  0  0  0  0  0  0  0  0  0
    0.8643    1.5766    0.0000 C   0  0  0  0  0  0  0  0  0  0  0  0
    1.8772    2.6830    0.0000 O   0  0  0  0  0  0  0  0  0  0  0  0
    1.3161    0.1462    0.0000 C   0  0  0  0  0  0  0  0  0  0  0  0
    0.3033   -0.9602    0.0000 C   0  0  0  0  0  0  0  0  0  0  0  0
   -1.1613   -0.6363    0.0000 C   0  0  0  0  0  0  0  0  0  0  0  0
    0.7551   -2.3906    0.0000 O   0  0  0  0  0  0  0  0  0  0  0  0
    2.2197   -2.7145    0.0000 C   0  0  0  0  0  0  0  0  0  0  0  0
    3.4851   -3.5198    0.0000 C   0  0  0  0  0  0  0  0  0  0  0  0
    1.6463   -4.1006    0.0000 C   0  0  0  0  0  0  0  0  0  0  0  0
    3.2325   -1.6081    0.0000 C   0  0  0  0  0  0  0  0  0  0  0  0
    4.6971   -1.9320    0.0000 C   0  0  0  0  0  0  0  0  0  0  0  0
    5.7099   -0.8256    0.0000 C   0  0  0  0  0  0  0  0  0  0  0  0
    5.2582    0.6048    0.0000 C   0  0  0  0  0  0  0  0  0  0  0  0
    6.2710    1.7112    0.0000 C   0  0  0  0  0  0  0  0  0  0  0  0
    5.8192    3.1416    0.0000 O   0  0  0  0  0  0  0  0  0  0  0  0
    7.7356    1.3873    0.0000 O   0  0  0  0  0  0  0  0  0  0  0  0
    3.7936    0.9287    0.0000 C   0  0  0  0  0  0  0  0  0  0  0  0
    2.7807   -0.1777    0.0000 C   0  0  0  0  0  0  0  0  0  0  0  0
  1  2  1  0
  2  3  1  0
  3  4  1  0
  4  5  1  0
  5  6  1  0
  6  7  1  0
  7  8  1  0
  7  9  1  0
  7 10  1  0
 10 11  2  0
 11 12  1  0
 12 13  1  0
 12 14  2  0
 14 15  1  0
 15 16  2  0
 15 17  1  0
 17 18  1  0
 18 19  1  0
 18 20  1  0
 18 21  1  0
 21 22  1  1
 22 23  1  0
 23 24  2  0
 24 25  1  0
 25 26  2  0
 25 27  1  0
 24 28  1  0
 29 28  1  6
 16 10  1  0
 29 21  1  0
 29 14  1  0
M  END
