
     RDKit          2D

 37 41  0  0  0  0  0  0  0  0999 V2000
    8.3880   -1.6578    0.0000 C   0  0  0  0  0  0  0  0  0  0  0  0
    6.8881   -1.6436    0.0000 C   0  0  0  0  0  0  0  0  0  0  0  0
    6.1258   -2.9355    0.0000 O   0  0  0  0  0  0  0  0  0  0  0  0
    6.1504   -0.3375    0.0000 O   0  0  0  0  0  0  0  0  0  0  0  0
    4.6505   -0.3233    0.0000 C   0  0  0  0  0  0  0  0  0  0  0  0
    3.8882   -1.6152    0.0000 C   0  0  0  0  0  0  0  0  0  0  0  0
    2.3883   -1.6010    0.0000 C   0  0  0  0  0  0  0  0  0  0  0  0
    1.6506   -0.2949    0.0000 C   0  0  0  0  0  0  0  0  0  0  0  0
    0.8883   -1.5867    0.0000 C   0  0  0  0  0  0  0  0  0  0  0  0
    2.4129    0.9970    0.0000 C   0  0  0  0  0  0  0  0  0  0  0  0
    1.6752    2.3031    0.0000 C   0  0  0  0  0  0  0  0  0  0  0  0
    0.1753    2.3173    0.0000 C   0  0  0  0  0  0  0  0  0  0  0  0
   -0.5870    1.0254    0.0000 C   0  0  0  0  0  0  0  0  0  0  0  0
   -1.3246    2.3315    0.0000 C   0  0  0  0  0  0  0  0  0  0  0  0
    0.1507   -0.2807    0.0000 C   0  0  0  0  0  0  0  0  0  0  0  0
   -0.6116   -1.5725    0.0000 C   0  0  0  0  0  0  0  0  0  0  0  0
    0.1261   -2.8786    0.0000 O   0  0  0  0  0  0  0  0  0  0  0  0
   -2.1115   -1.5583    0.0000 C   0  0  0  0  0  0  0  0  0  0  0  0
   -2.8492   -0.2522    0.0000 C   0  0  0  0  0  0  0  0  0  0  0  0
   -4.3491   -0.2380    0.0000 C   0  0  0  0  0  0  0  0  0  0  0  0
   -5.1114   -1.5299    0.0000 C   0  0  0  0  0  0  0  0  0  0  0  0
   -4.3737   -2.8360    0.0000 C   0  0  0  0  0  0  0  0  0  0  0  0
   -6.6113   -1.5157    0.0000 C   0  0  0  0  0  0  0  0  0  0  0  0
   -7.3736   -2.8076    0.0000 C   0  0  0  0  0  0  0  0  0  0  0  0
   -7.3490   -0.2096    0.0000 C   0  0  0  0  0  0  0  0  0  0  0  0
   -6.5867    1.0823    0.0000 C   0  0  0  0  0  0  0  0  0  0  0  0
   -5.0868    1.0681    0.0000 C   0  0  0  0  0  0  0  0  0  0  0  0
   -5.8244    2.3741    0.0000 C   0  0  0  0  0  0  0  0  0  0  0  0
   -4.3245    2.3599    0.0000 C   0  0  0  0  0  0  0  0  0  0  0  0
   -2.8246    2.3457    0.0000 C   0  0  0  0  0  0  0  0  0  0  0  0
   -2.0869    1.0396    0.0000 C   0  0  0  0  0  0  0  0  0  0  0  0
   -1.3493   -0.2665    0.0000 C   0  0  0  0  0  0  0  0  0  0  0  0
    3.9128    0.9828    0.0000 C   0  0  0  0  0  0  0  0  0  0  0  0
    3.6664    2.4624    0.0000 C   0  0  0  0  0  0  0  0  0  0  0  0
    5.3272    1.4824    0.0000 C   0  0  0  0  0  0  0  0  0  0  0  0
    5.6016    2.9571    0.0000 O   0  0  0  0  0  0  0  0  0  0  0  0
    6.6691    0.8122    0.0000 O   0  0  0  0  0  0  0  0  0  0  0  0
  1  2  1  0
  2  3  2  0
  2  4  1  0
  5  4  1  6
  5  6  1  0
  6  7  1  0
  7  8  1  0
  8  9  1  1
  8 10  1  0
 10 11  1  1
 11 12  1  0
 12 13  1  0
 13 14  1  1
 13 15  1  0
 15 16  1  1
 16 17  2  0
 16 18  1  0
 18 19  2  0
 20 19  1  6
 20 21  1  0
 21 22  1  1
 21 23  1  0
 23 24  1  6
 23 25  1  0
 25 26  1  0
 26 27  1  0
 27 28  1  1
 27 29  1  0
 29 30  1  0
 30 31  1  0
 31 32  1  6
 10 33  1  0
 33 34  1  6
 33 35  1  0
 35 36  2  0
 35 37  1  0
 33  5  1  0
 15  8  1  0
 31 19  1  0
 31 13  1  0
 27 20  1  0
M  END
