
     RDKit          2D

 31 34  0  0  0  0  0  0  0  0999 V2000
   -4.0660    4.2648    0.0000 C   0  0  0  0  0  0  0  0  0  0  0  0
   -4.0983    2.7652    0.0000 O   0  0  0  0  0  0  0  0  0  0  0  0
   -5.4132    2.0433    0.0000 C   0  0  0  0  0  0  0  0  0  0  0  0
   -5.4455    0.5436    0.0000 C   0  0  0  0  0  0  0  0  0  0  0  0
   -4.1629   -0.2341    0.0000 C   0  0  0  0  0  0  0  0  0  0  0  0
   -2.8480    0.4877    0.0000 C   0  0  0  0  0  0  0  0  0  0  0  0
   -1.5654   -0.2900    0.0000 C   0  0  0  0  0  0  0  0  0  0  0  0
   -1.5977   -1.7897    0.0000 C   0  0  0  0  0  0  0  0  0  0  0  0
   -0.3151   -2.5675    0.0000 O   0  0  0  0  0  0  0  0  0  0  0  0
    0.9998   -1.8456    0.0000 C   0  0  0  0  0  0  0  0  0  0  0  0
    2.2824   -2.6234    0.0000 C   0  0  0  0  0  0  0  0  0  0  0  0
    3.5973   -1.9015    0.0000 C   0  0  0  0  0  0  0  0  0  0  0  0
    3.7861   -0.4134    0.0000 N   0  0  0  0  0  0  0  0  0  0  0  0
    5.2597   -0.1332    0.0000 C   0  0  0  0  0  0  0  0  0  0  0  0
    5.8992    1.2237    0.0000 C   0  0  0  0  0  0  0  0  0  0  0  0
    7.3940    1.3483    0.0000 C   0  0  0  0  0  0  0  0  0  0  0  0
    8.0334    2.7052    0.0000 C   0  0  0  0  0  0  0  0  0  0  0  0
    7.1781    3.9374    0.0000 C   0  0  0  0  0  0  0  0  0  0  0  0
    5.6833    3.8128    0.0000 C   0  0  0  0  0  0  0  0  0  0  0  0
    5.0438    2.4559    0.0000 C   0  0  0  0  0  0  0  0  0  0  0  0
    5.9816   -1.4481    0.0000 O   0  0  0  0  0  0  0  0  0  0  0  0
    4.9542   -2.5409    0.0000 C   0  0  0  0  0  0  0  0  0  0  0  0
    5.2344   -4.0145    0.0000 C   0  0  0  0  0  0  0  0  0  0  0  0
   -2.9125   -2.5116    0.0000 C   0  0  0  0  0  0  0  0  0  0  0  0
   -3.2559   -3.9717    0.0000 C   0  0  0  0  0  0  0  0  0  0  0  0
   -4.7507   -4.0964    0.0000 C   0  0  0  0  0  0  0  0  0  0  0  0
   -5.3312   -2.7133    0.0000 S   0  0  0  0  0  0  0  0  0  0  0  0
   -4.1951   -1.7338    0.0000 C   0  0  0  0  0  0  0  0  0  0  0  0
   -6.6958    2.8211    0.0000 C   0  0  0  0  0  0  0  0  0  0  0  0
   -8.0107    2.0992    0.0000 O   0  0  0  0  0  0  0  0  0  0  0  0
   -6.6635    4.3207    0.0000 O   0  0  0  0  0  0  0  0  0  0  0  0
  1  2  1  0
  2  3  1  0
  3  4  1  1
  4  5  1  0
  5  6  1  0
  6  7  2  0
  7  8  1  0
  8  9  1  0
  9 10  1  0
 10 11  1  0
 11 12  1  0
 12 13  1  0
 13 14  2  0
 14 15  1  0
 15 16  2  0
 16 17  1  0
 17 18  2  0
 18 19  1  0
 19 20  2  0
 14 21  1  0
 21 22  1  0
 22 23  1  0
  8 24  2  0
 24 25  1  0
 25 26  2  0
 26 27  1  0
 27 28  1  0
  3 29  1  0
 29 30  2  0
 29 31  1  0
 28  5  2  0
 22 12  2  0
 28 24  1  0
 20 15  1  0
M  END
