
     RDKit          2D

 25 26  0  0  0  0  0  0  0  0999 V2000
    2.7542   -3.6874    0.0000 C   0  0  0  0  0  0  0  0  0  0  0  0
    3.1540   -2.2416    0.0000 O   0  0  0  0  0  0  0  0  0  0  0  0
    2.1018   -1.1726    0.0000 C   0  0  0  0  0  0  0  0  0  0  0  0
    0.6498   -1.5492    0.0000 C   0  0  0  0  0  0  0  0  0  0  0  0
   -0.4023   -0.4801    0.0000 C   0  0  0  0  0  0  0  0  0  0  0  0
   -1.8543   -0.8568    0.0000 C   0  0  0  0  0  0  0  0  0  0  0  0
   -2.9064    0.2123    0.0000 C   0  0  0  0  0  0  0  0  0  0  0  0
   -4.3584   -0.1644    0.0000 C   0  0  0  0  0  0  0  0  0  0  0  0
   -5.4105    0.9047    0.0000 C   0  0  0  0  0  0  0  0  0  0  0  0
   -6.8625    0.5280    0.0000 C   0  0  0  0  0  0  0  0  0  0  0  0
   -7.2622   -0.9177    0.0000 C   0  0  0  0  0  0  0  0  0  0  0  0
   -6.2101   -1.9868    0.0000 C   0  0  0  0  0  0  0  0  0  0  0  0
   -4.7581   -1.6101    0.0000 C   0  0  0  0  0  0  0  0  0  0  0  0
   -0.0026    0.9656    0.0000 C   0  0  0  0  0  0  0  0  0  0  0  0
   -1.0547    2.0347    0.0000 C   0  0  0  0  0  0  0  0  0  0  0  0
   -2.5067    1.6580    0.0000 O   0  0  0  0  0  0  0  0  0  0  0  0
   -0.6550    3.4804    0.0000 O   0  0  0  0  0  0  0  0  0  0  0  0
    1.4494    1.3423    0.0000 C   0  0  0  0  0  0  0  0  0  0  0  0
    1.8492    2.7880    0.0000 O   0  0  0  0  0  0  0  0  0  0  0  0
    2.5016    0.2732    0.0000 C   0  0  0  0  0  0  0  0  0  0  0  0
    3.9535    0.6499    0.0000 C   0  0  0  0  0  0  0  0  0  0  0  0
    5.0057   -0.4192    0.0000 C   0  0  0  0  0  0  0  0  0  0  0  0
    6.4576   -0.0426    0.0000 C   0  0  0  0  0  0  0  0  0  0  0  0
    7.5098   -1.1116    0.0000 C   0  0  0  0  0  0  0  0  0  0  0  0
    6.8574    1.4032    0.0000 C   0  0  0  0  0  0  0  0  0  0  0  0
  1  2  1  0
  2  3  1  0
  3  4  1  0
  4  5  2  0
  5  6  1  0
  6  7  1  0
  7  8  1  0
  8  9  2  0
  9 10  1  0
 10 11  2  0
 11 12  1  0
 12 13  2  0
  5 14  1  0
 14 15  1  0
 15 16  2  0
 15 17  1  0
 14 18  2  0
 18 19  1  0
 18 20  1  0
 20 21  1  0
 21 22  1  0
 22 23  2  0
 23 24  1  0
 23 25  1  0
 20  3  2  0
 13  8  1  0
M  END
