
     RDKit          2D

 22 23  0  0  0  0  0  0  0  0999 V2000
   -3.9985    2.3300    0.0000 C   0  0  0  0  0  0  0  0  0  0  0  0
   -4.0317    0.8303    0.0000 C   0  0  0  0  0  0  0  0  0  0  0  0
   -2.7496    0.0517    0.0000 C   0  0  0  0  0  0  0  0  0  0  0  0
   -1.4675   -0.7269    0.0000 C   0  0  0  0  0  0  0  0  0  0  0  0
   -0.1855   -1.5055    0.0000 C   0  0  0  0  0  0  0  0  0  0  0  0
   -0.0618   -3.0004    0.0000 C   0  0  0  0  0  0  0  0  0  0  0  0
    1.3982   -3.3447    0.0000 C   0  0  0  0  0  0  0  0  0  0  0  0
    2.1768   -2.0626    0.0000 C   0  0  0  0  0  0  0  0  0  0  0  0
    3.6717   -1.9389    0.0000 C   0  0  0  0  0  0  0  0  0  0  0  0
    4.3120   -0.5824    0.0000 C   0  0  0  0  0  0  0  0  0  0  0  0
    5.8069   -0.4587    0.0000 C   0  0  0  0  0  0  0  0  0  0  0  0
    6.4472    0.8977    0.0000 C   0  0  0  0  0  0  0  0  0  0  0  0
    5.5927    2.1305    0.0000 C   0  0  0  0  0  0  0  0  0  0  0  0
    6.2330    3.4870    0.0000 F   0  0  0  0  0  0  0  0  0  0  0  0
    4.0978    2.0068    0.0000 C   0  0  0  0  0  0  0  0  0  0  0  0
    3.4574    0.6504    0.0000 C   0  0  0  0  0  0  0  0  0  0  0  0
    1.1981   -0.9259    0.0000 S   0  0  0  0  0  0  0  0  0  0  0  0
   -5.3471    0.1093    0.0000 N   0  0  0  0  0  0  0  0  0  0  0  0
   -5.3803   -1.3903    0.0000 O   0  0  0  0  0  0  0  0  0  0  0  0
   -6.6292    0.8879    0.0000 C   0  0  0  0  0  0  0  0  0  0  0  0
   -7.9445    0.1669    0.0000 N   0  0  0  0  0  0  0  0  0  0  0  0
   -6.5959    2.3876    0.0000 O   0  0  0  0  0  0  0  0  0  0  0  0
  2  1  1  6
  2  3  1  0
  3  4  3  0
  4  5  1  0
  5  6  2  0
  6  7  1  0
  7  8  2  0
  8  9  1  0
  9 10  1  0
 10 11  1  0
 11 12  2  0
 12 13  1  0
 13 14  1  0
 13 15  2  0
 15 16  1  0
  8 17  1  0
  2 18  1  0
 18 19  1  0
 18 20  1  0
 20 21  1  0
 20 22  2  0
 17  5  1  0
 16 10  2  0
M  END
