
     RDKit          2D

 28 31  0  0  0  0  0  0  0  0999 V2000
    2.3855    2.1082    0.0000 C   0  0  0  0  0  0  0  0  0  0  0  0
    3.4938    1.0974    0.0000 N   0  0  0  0  0  0  0  0  0  0  0  0
    3.1725   -0.3678    0.0000 C   0  0  0  0  0  0  0  0  0  0  0  0
    1.7429   -0.8222    0.0000 C   0  0  0  0  0  0  0  0  0  0  0  0
    0.6347    0.1887    0.0000 O   0  0  0  0  0  0  0  0  0  0  0  0
   -0.7948   -0.2657    0.0000 C   0  0  0  0  0  0  0  0  0  0  0  0
   -1.9031    0.7452    0.0000 C   0  0  0  0  0  0  0  0  0  0  0  0
   -3.3326    0.2908    0.0000 C   0  0  0  0  0  0  0  0  0  0  0  0
   -3.6539   -1.1743    0.0000 C   0  0  0  0  0  0  0  0  0  0  0  0
   -5.0835   -1.6287    0.0000 C   0  0  0  0  0  0  0  0  0  0  0  0
   -6.1917   -0.6178    0.0000 C   0  0  0  0  0  0  0  0  0  0  0  0
   -7.6609   -0.9203    0.0000 S   0  0  0  0  0  0  0  0  0  0  0  0
   -8.4025    0.3836    0.0000 C   0  0  0  0  0  0  0  0  0  0  0  0
   -9.8933    0.5500    0.0000 O   0  0  0  0  0  0  0  0  0  0  0  0
   -7.3917    1.4918    0.0000 N   0  0  0  0  0  0  0  0  0  0  0  0
   -6.0253    0.8729    0.0000 C   0  0  0  0  0  0  0  0  0  0  0  0
   -4.7215    1.6145    0.0000 O   0  0  0  0  0  0  0  0  0  0  0  0
   -2.5457   -2.1852    0.0000 C   0  0  0  0  0  0  0  0  0  0  0  0
   -1.1161   -1.7309    0.0000 C   0  0  0  0  0  0  0  0  0  0  0  0
    4.2807   -1.3787    0.0000 N   0  0  0  0  0  0  0  0  0  0  0  0
    5.7102   -0.9243    0.0000 C   0  0  0  0  0  0  0  0  0  0  0  0
    6.8185   -1.9352    0.0000 C   0  0  0  0  0  0  0  0  0  0  0  0
    8.2480   -1.4808    0.0000 C   0  0  0  0  0  0  0  0  0  0  0  0
    8.5693   -0.0157    0.0000 C   0  0  0  0  0  0  0  0  0  0  0  0
    7.4611    0.9952    0.0000 C   0  0  0  0  0  0  0  0  0  0  0  0
    6.0315    0.5408    0.0000 C   0  0  0  0  0  0  0  0  0  0  0  0
    4.9233    1.5517    0.0000 C   0  0  0  0  0  0  0  0  0  0  0  0
    5.2446    3.0169    0.0000 O   0  0  0  0  0  0  0  0  0  0  0  0
  1  2  1  0
  2  3  1  0
  3  4  1  0
  4  5  1  0
  5  6  1  0
  6  7  1  0
  7  8  2  0
  8  9  1  0
  9 10  1  0
 10 11  1  0
 11 12  1  0
 12 13  1  0
 13 14  2  0
 13 15  1  0
 15 16  1  0
 16 17  2  0
  9 18  2  0
 18 19  1  0
  3 20  2  0
 20 21  1  0
 21 22  2  0
 22 23  1  0
 23 24  2  0
 24 25  1  0
 25 26  2  0
 26 27  1  0
 27 28  2  0
 27  2  1  0
 19  6  2  0
 26 21  1  0
 16 11  1  0
M  END
