
     RDKit          2D

 27 29  0  0  0  0  0  0  0  0999 V2000
   -1.4111   -1.8052    0.0000 O   0  0  0  0  0  0  0  0  0  0  0  0
   -2.2254   -0.5454    0.0000 C   0  0  0  0  0  0  0  0  0  0  0  0
   -1.5416    0.7896    0.0000 N   0  0  0  0  0  0  0  0  0  0  0  0
   -0.0435    0.8649    0.0000 C   0  0  0  0  0  0  0  0  0  0  0  0
    0.7708   -0.3948    0.0000 C   0  0  0  0  0  0  0  0  0  0  0  0
    2.2689   -0.3195    0.0000 C   0  0  0  0  0  0  0  0  0  0  0  0
    2.9527    1.0156    0.0000 C   0  0  0  0  0  0  0  0  0  0  0  0
    4.4508    1.0909    0.0000 O   0  0  0  0  0  0  0  0  0  0  0  0
    5.2651   -0.1688    0.0000 C   0  0  0  0  0  0  0  0  0  0  0  0
    4.5813   -1.5039    0.0000 N   0  0  0  0  0  0  0  0  0  0  0  0
    5.3956   -2.7636    0.0000 C   0  0  0  0  0  0  0  0  0  0  0  0
    6.8937   -2.6883    0.0000 C   0  0  0  0  0  0  0  0  0  0  0  0
    7.5775   -1.3533    0.0000 C   0  0  0  0  0  0  0  0  0  0  0  0
    6.7632   -0.0935    0.0000 N   0  0  0  0  0  0  0  0  0  0  0  0
    2.1384    2.2753    0.0000 C   0  0  0  0  0  0  0  0  0  0  0  0
    0.6403    2.2000    0.0000 C   0  0  0  0  0  0  0  0  0  0  0  0
   -0.1739    3.4597    0.0000 C   0  0  0  0  0  0  0  0  0  0  0  0
   -1.6720    3.3844    0.0000 O   0  0  0  0  0  0  0  0  0  0  0  0
    0.5099    4.7948    0.0000 O   0  0  0  0  0  0  0  0  0  0  0  0
   -3.7235   -0.6208    0.0000 C   0  0  0  0  0  0  0  0  0  0  0  0
   -4.5378    0.6390    0.0000 C   0  0  0  0  0  0  0  0  0  0  0  0
   -6.0359    0.5637    0.0000 C   0  0  0  0  0  0  0  0  0  0  0  0
   -6.7197   -0.7714    0.0000 C   0  0  0  0  0  0  0  0  0  0  0  0
   -8.2179   -0.8467    0.0000 Cl  0  0  0  0  0  0  0  0  0  0  0  0
   -5.9055   -2.0311    0.0000 C   0  0  0  0  0  0  0  0  0  0  0  0
   -4.4074   -1.9558    0.0000 C   0  0  0  0  0  0  0  0  0  0  0  0
   -3.5931   -3.2156    0.0000 Cl  0  0  0  0  0  0  0  0  0  0  0  0
  1  2  2  0
  2  3  1  0
  3  4  1  0
  4  5  1  0
  5  6  2  0
  6  7  1  0
  7  8  1  0
  8  9  1  0
  9 10  2  0
 10 11  1  0
 11 12  2  0
 12 13  1  0
 13 14  2  0
  7 15  2  0
 15 16  1  0
 16 17  1  0
 17 18  2  0
 17 19  1  0
  2 20  1  0
 20 21  1  0
 21 22  2  0
 22 23  1  0
 23 24  1  0
 23 25  2  0
 25 26  1  0
 26 27  1  0
 16  4  2  0
 26 20  2  0
 14  9  1  0
M  END
