
     RDKit          2D

 21 22  0  0  0  0  0  0  0  0999 V2000
   -7.6253   -0.9052    0.0000 C   0  0  0  0  0  0  0  0  0  0  0  0
   -6.1797   -1.3055    0.0000 C   0  0  0  0  0  0  0  0  0  0  0  0
   -5.8036   -2.7576    0.0000 O   0  0  0  0  0  0  0  0  0  0  0  0
   -5.1102   -0.2538    0.0000 N   0  0  0  0  0  0  0  0  0  0  0  0
   -5.4863    1.1983    0.0000 O   0  0  0  0  0  0  0  0  0  0  0  0
   -3.6646   -0.6541    0.0000 C   0  0  0  0  0  0  0  0  0  0  0  0
   -2.5951    0.3977    0.0000 C   0  0  0  0  0  0  0  0  0  0  0  0
   -1.1495   -0.0026    0.0000 C   0  0  0  0  0  0  0  0  0  0  0  0
   -0.0801    1.0492    0.0000 C   0  0  0  0  0  0  0  0  0  0  0  0
   -0.4562    2.5012    0.0000 C   0  0  0  0  0  0  0  0  0  0  0  0
    0.6133    3.5530    0.0000 C   0  0  0  0  0  0  0  0  0  0  0  0
    2.0589    3.1527    0.0000 C   0  0  0  0  0  0  0  0  0  0  0  0
    2.4350    1.7006    0.0000 C   0  0  0  0  0  0  0  0  0  0  0  0
    3.8806    1.3003    0.0000 O   0  0  0  0  0  0  0  0  0  0  0  0
    4.2567   -0.1518    0.0000 C   0  0  0  0  0  0  0  0  0  0  0  0
    3.1873   -1.2035    0.0000 C   0  0  0  0  0  0  0  0  0  0  0  0
    3.5634   -2.6556    0.0000 C   0  0  0  0  0  0  0  0  0  0  0  0
    5.0090   -3.0559    0.0000 C   0  0  0  0  0  0  0  0  0  0  0  0
    6.0785   -2.0042    0.0000 C   0  0  0  0  0  0  0  0  0  0  0  0
    5.7023   -0.5521    0.0000 C   0  0  0  0  0  0  0  0  0  0  0  0
    1.3655    0.6488    0.0000 C   0  0  0  0  0  0  0  0  0  0  0  0
  1  2  1  0
  2  3  2  0
  2  4  1  0
  4  5  1  0
  4  6  1  0
  6  7  1  0
  7  8  2  0
  8  9  1  0
  9 10  1  0
 10 11  2  0
 11 12  1  0
 12 13  2  0
 13 14  1  0
 14 15  1  0
 15 16  2  0
 16 17  1  0
 17 18  2  0
 18 19  1  0
 19 20  2  0
 13 21  1  0
 21  9  2  0
 20 15  1  0
M  END
