
     RDKit          2D

 43 48  0  0  0  0  0  0  0  0999 V2000
   -1.8443    0.1723    0.0000 O   0  0  0  0  0  0  0  0  0  0  0  0
   -2.5584    1.4914    0.0000 C   0  0  0  0  0  0  0  0  0  0  0  0
   -1.7732    2.7694    0.0000 C   0  0  0  0  0  0  0  0  0  0  0  0
   -0.2737    2.7283    0.0000 C   0  0  0  0  0  0  0  0  0  0  0  0
    0.5116    4.0063    0.0000 C   0  0  0  0  0  0  0  0  0  0  0  0
   -0.2026    5.3254    0.0000 C   0  0  0  0  0  0  0  0  0  0  0  0
    0.5827    6.6034    0.0000 F   0  0  0  0  0  0  0  0  0  0  0  0
   -1.7020    5.3665    0.0000 C   0  0  0  0  0  0  0  0  0  0  0  0
   -2.4873    4.0885    0.0000 C   0  0  0  0  0  0  0  0  0  0  0  0
   -4.0579    1.5325    0.0000 C   0  0  0  0  0  0  0  0  0  0  0  0
   -4.7720    2.8516    0.0000 C   0  0  0  0  0  0  0  0  0  0  0  0
   -6.2715    2.8926    0.0000 C   0  0  0  0  0  0  0  0  0  0  0  0
   -7.0568    1.6146    0.0000 C   0  0  0  0  0  0  0  0  0  0  0  0
   -6.3426    0.2955    0.0000 C   0  0  0  0  0  0  0  0  0  0  0  0
   -4.8432    0.2545    0.0000 C   0  0  0  0  0  0  0  0  0  0  0  0
   -4.1290   -1.0646    0.0000 N   0  0  0  0  0  0  0  0  0  0  0  0
   -4.9143   -2.3427    0.0000 C   0  0  0  0  0  0  0  0  0  0  0  0
   -4.2002   -3.6617    0.0000 C   0  0  0  0  0  0  0  0  0  0  0  0
   -2.7008   -3.7028    0.0000 C   0  0  0  0  0  0  0  0  0  0  0  0
   -1.9866   -5.0219    0.0000 C   0  0  0  0  0  0  0  0  0  0  0  0
   -0.4872   -5.0630    0.0000 C   0  0  0  0  0  0  0  0  0  0  0  0
    0.2981   -3.7850    0.0000 C   0  0  0  0  0  0  0  0  0  0  0  0
    1.7976   -3.8261    0.0000 O   0  0  0  0  0  0  0  0  0  0  0  0
    2.5828   -2.5481    0.0000 C   0  0  0  0  0  0  0  0  0  0  0  0
    4.0823   -2.5891    0.0000 C   0  0  0  0  0  0  0  0  0  0  0  0
    4.8676   -1.3111    0.0000 N   0  0  0  0  0  0  0  0  0  0  0  0
    6.3631   -1.1953    0.0000 C   0  0  0  0  0  0  0  0  0  0  0  0
    7.4499   -2.2291    0.0000 C   0  0  0  0  0  0  0  0  0  0  0  0
    8.8887   -1.8048    0.0000 C   0  0  0  0  0  0  0  0  0  0  0  0
    9.2406   -0.3467    0.0000 C   0  0  0  0  0  0  0  0  0  0  0  0
    8.1538    0.6872    0.0000 C   0  0  0  0  0  0  0  0  0  0  0  0
    6.7150    0.2629    0.0000 C   0  0  0  0  0  0  0  0  0  0  0  0
    5.4370    1.0482    0.0000 C   0  0  0  0  0  0  0  0  0  0  0  0
    5.1655    2.5234    0.0000 C   0  0  0  0  0  0  0  0  0  0  0  0
    3.7521    3.0258    0.0000 C   0  0  0  0  0  0  0  0  0  0  0  0
    2.6103    2.0530    0.0000 C   0  0  0  0  0  0  0  0  0  0  0  0
    2.8819    0.5778    0.0000 C   0  0  0  0  0  0  0  0  0  0  0  0
    4.2952    0.0754    0.0000 C   0  0  0  0  0  0  0  0  0  0  0  0
   -0.4160   -2.4659    0.0000 C   0  0  0  0  0  0  0  0  0  0  0  0
   -1.9155   -2.4248    0.0000 C   0  0  0  0  0  0  0  0  0  0  0  0
   -6.4138   -2.3016    0.0000 C   0  0  0  0  0  0  0  0  0  0  0  0
   -7.1991   -3.5796    0.0000 O   0  0  0  0  0  0  0  0  0  0  0  0
   -7.1279   -0.9825    0.0000 O   0  0  0  0  0  0  0  0  0  0  0  0
  1  2  2  0
  2  3  1  0
  3  4  1  0
  4  5  2  0
  5  6  1  0
  6  7  1  0
  6  8  2  0
  8  9  1  0
  2 10  1  0
 10 11  2  0
 11 12  1  0
 12 13  2  0
 13 14  1  0
 14 15  2  0
 15 16  1  0
 16 17  1  0
 17 18  1  1
 18 19  1  0
 19 20  1  0
 20 21  2  0
 21 22  1  0
 22 23  1  0
 23 24  1  0
 24 25  1  0
 25 26  1  0
 26 27  1  0
 27 28  2  0
 28 29  1  0
 29 30  2  0
 30 31  1  0
 31 32  2  0
 32 33  1  0
 33 34  2  0
 34 35  1  0
 35 36  2  0
 36 37  1  0
 37 38  2  0
 22 39  2  0
 39 40  1  0
 17 41  1  0
 41 42  2  0
 41 43  1  0
  9  3  2  0
 15 10  1  0
 40 19  2  0
 38 26  1  0
 32 27  1  0
 38 33  1  0
M  END
