
     RDKit          2D

 23 25  0  0  0  0  0  0  0  0999 V2000
   -3.9432   -1.6329    0.0000 C   0  0  0  0  0  0  0  0  0  0  0  0
   -4.7456   -0.3656    0.0000 C   0  0  0  0  0  0  0  0  0  0  0  0
   -3.3582    0.2046    0.0000 C   0  0  0  0  0  0  0  0  0  0  0  0
   -2.1707   -0.7119    0.0000 O   0  0  0  0  0  0  0  0  0  0  0  0
   -0.7833   -0.1417    0.0000 C   0  0  0  0  0  0  0  0  0  0  0  0
    0.4042   -1.0581    0.0000 C   0  0  0  0  0  0  0  0  0  0  0  0
    1.7916   -0.4879    0.0000 C   0  0  0  0  0  0  0  0  0  0  0  0
    1.9915    0.9987    0.0000 C   0  0  0  0  0  0  0  0  0  0  0  0
    3.3789    1.5689    0.0000 C   0  0  0  0  0  0  0  0  0  0  0  0
    4.5664    0.6524    0.0000 C   0  0  0  0  0  0  0  0  0  0  0  0
    6.0058    1.0745    0.0000 S   0  0  0  0  0  0  0  0  0  0  0  0
    6.8520   -0.1641    0.0000 C   0  0  0  0  0  0  0  0  0  0  0  0
    8.3513   -0.2075    0.0000 O   0  0  0  0  0  0  0  0  0  0  0  0
    5.9355   -1.3516    0.0000 N   0  0  0  0  0  0  0  0  0  0  0  0
    4.5230   -0.8469    0.0000 C   0  0  0  0  0  0  0  0  0  0  0  0
    3.2844   -1.6931    0.0000 O   0  0  0  0  0  0  0  0  0  0  0  0
    0.8040    1.9151    0.0000 C   0  0  0  0  0  0  0  0  0  0  0  0
   -0.5834    1.3449    0.0000 C   0  0  0  0  0  0  0  0  0  0  0  0
   -5.0662    1.0997    0.0000 C   0  0  0  0  0  0  0  0  0  0  0  0
   -6.4955    1.5548    0.0000 C   0  0  0  0  0  0  0  0  0  0  0  0
   -7.6043    0.5444    0.0000 C   0  0  0  0  0  0  0  0  0  0  0  0
   -7.2837   -0.9209    0.0000 C   0  0  0  0  0  0  0  0  0  0  0  0
   -5.8543   -1.3759    0.0000 C   0  0  0  0  0  0  0  0  0  0  0  0
  1  2  1  0
  2  3  1  0
  3  4  1  0
  4  5  1  0
  5  6  1  0
  6  7  2  0
  7  8  1  0
  8  9  1  0
  9 10  1  0
 10 11  1  0
 11 12  1  0
 12 13  2  0
 12 14  1  0
 14 15  1  0
 15 16  2  0
  8 17  2  0
 17 18  1  0
  2 19  1  0
 19 20  1  0
 20 21  1  0
 21 22  1  0
 22 23  1  0
 23  2  1  0
 18  5  2  0
 15 10  1  0
M  END
