
     RDKit          2D

 24 23  0  0  0  0  0  0  0  0999 V2000
    7.8469    3.4777    0.0000 C   0  0  0  0  0  0  0  0  0  0  0  0
    7.4822    2.0227    0.0000 C   0  0  0  0  0  0  0  0  0  0  0  0
    8.5599    0.9793    0.0000 C   0  0  0  0  0  0  0  0  0  0  0  0
    8.1951   -0.4756    0.0000 C   0  0  0  0  0  0  0  0  0  0  0  0
    6.7527   -0.8873    0.0000 C   0  0  0  0  0  0  0  0  0  0  0  0
    6.3880   -2.3423    0.0000 C   0  0  0  0  0  0  0  0  0  0  0  0
    4.9456   -2.7539    0.0000 C   0  0  0  0  0  0  0  0  0  0  0  0
    3.8679   -1.7106    0.0000 C   0  0  0  0  0  0  0  0  0  0  0  0
    2.4255   -2.1222    0.0000 C   0  0  0  0  0  0  0  0  0  0  0  0
    1.3478   -1.0788    0.0000 C   0  0  0  0  0  0  0  0  0  0  0  0
    1.7125    0.3761    0.0000 C   0  0  0  0  0  0  0  0  0  0  0  0
    0.6348    1.4195    0.0000 C   0  0  0  0  0  0  0  0  0  0  0  0
   -0.8076    1.0079    0.0000 C   0  0  0  0  0  0  0  0  0  0  0  0
   -1.1723   -0.4471    0.0000 C   0  0  0  0  0  0  0  0  0  0  0  0
   -2.6147   -0.8588    0.0000 C   0  0  0  0  0  0  0  0  0  0  0  0
   -3.6924    0.1846    0.0000 C   0  0  0  0  0  0  0  0  0  0  0  0
   -3.3277    1.6396    0.0000 C   0  0  0  0  0  0  0  0  0  0  0  0
   -4.4054    2.6829    0.0000 C   0  0  0  0  0  0  0  0  0  0  0  0
   -5.8478    2.2713    0.0000 C   0  0  0  0  0  0  0  0  0  0  0  0
   -6.2125    0.8163    0.0000 C   0  0  0  0  0  0  0  0  0  0  0  0
   -7.6549    0.4047    0.0000 C   0  0  0  0  0  0  0  0  0  0  0  0
   -8.0197   -1.0503    0.0000 C   0  0  0  0  0  0  0  0  0  0  0  0
   -6.9420   -2.0937    0.0000 O   0  0  0  0  0  0  0  0  0  0  0  0
   -9.4621   -1.4620    0.0000 O   0  0  0  0  0  0  0  0  0  0  0  0
  1  2  1  0
  2  3  1  0
  3  4  2  0
  4  5  1  0
  5  6  1  0
  6  7  2  0
  7  8  1  0
  8  9  1  0
  9 10  2  0
 10 11  1  0
 11 12  1  0
 12 13  2  0
 13 14  1  0
 14 15  1  0
 15 16  2  0
 16 17  1  0
 17 18  1  0
 18 19  2  0
 19 20  1  0
 20 21  1  0
 21 22  1  0
 22 23  2  0
 22 24  1  0
M  END
