
     RDKit          2D

 43 46  0  0  0  0  0  0  0  0999 V2000
   -5.5589   -8.2943    0.0000 C   0  0  0  0  0  0  0  0  0  0  0  0
   -5.0733   -6.8751    0.0000 C   0  0  0  0  0  0  0  0  0  0  0  0
   -3.6014   -6.5861    0.0000 C   0  0  0  0  0  0  0  0  0  0  0  0
   -3.1157   -5.1669    0.0000 C   0  0  0  0  0  0  0  0  0  0  0  0
   -1.6438   -4.8779    0.0000 C   0  0  0  0  0  0  0  0  0  0  0  0
   -1.1581   -3.4587    0.0000 C   0  0  0  0  0  0  0  0  0  0  0  0
    0.3138   -3.1697    0.0000 C   0  0  0  0  0  0  0  0  0  0  0  0
    0.7994   -1.7505    0.0000 C   0  0  0  0  0  0  0  0  0  0  0  0
    2.2331   -1.3092    0.0000 S   0  0  0  0  0  0  0  0  0  0  0  0
    2.2564    0.1906    0.0000 C   0  0  0  0  0  0  0  0  0  0  0  0
    3.4835    1.0533    0.0000 C   0  0  0  0  0  0  0  0  0  0  0  0
    3.3499    2.5473    0.0000 O   0  0  0  0  0  0  0  0  0  0  0  0
    4.8442    0.4219    0.0000 N   0  0  0  0  0  0  0  0  0  0  0  0
    6.0713    1.2846    0.0000 C   0  0  0  0  0  0  0  0  0  0  0  0
    5.9377    2.7787    0.0000 C   0  0  0  0  0  0  0  0  0  0  0  0
    7.1648    3.6414    0.0000 C   0  0  0  0  0  0  0  0  0  0  0  0
    7.0312    5.1354    0.0000 C   0  0  0  0  0  0  0  0  0  0  0  0
    5.6706    5.7668    0.0000 C   0  0  0  0  0  0  0  0  0  0  0  0
    4.4435    4.9041    0.0000 C   0  0  0  0  0  0  0  0  0  0  0  0
    4.5770    3.4100    0.0000 C   0  0  0  0  0  0  0  0  0  0  0  0
    4.9777   -1.0721    0.0000 C   0  0  0  0  0  0  0  0  0  0  0  0
    6.3384   -1.7034    0.0000 C   0  0  0  0  0  0  0  0  0  0  0  0
    6.4719   -3.1975    0.0000 C   0  0  0  0  0  0  0  0  0  0  0  0
    7.8326   -3.8288    0.0000 C   0  0  0  0  0  0  0  0  0  0  0  0
    9.0597   -2.9662    0.0000 C   0  0  0  0  0  0  0  0  0  0  0  0
    8.9261   -1.4721    0.0000 C   0  0  0  0  0  0  0  0  0  0  0  0
    7.5655   -0.8408    0.0000 C   0  0  0  0  0  0  0  0  0  0  0  0
    0.8372    0.6763    0.0000 C   0  0  0  0  0  0  0  0  0  0  0  0
    0.3959    2.1099    0.0000 O   0  0  0  0  0  0  0  0  0  0  0  0
   -0.0633   -0.5234    0.0000 N   0  0  0  0  0  0  0  0  0  0  0  0
   -1.5631   -0.5000    0.0000 C   0  0  0  0  0  0  0  0  0  0  0  0
   -2.2928    0.8105    0.0000 C   0  0  0  0  0  0  0  0  0  0  0  0
   -3.7926    0.8339    0.0000 C   0  0  0  0  0  0  0  0  0  0  0  0
   -4.5223    2.1444    0.0000 C   0  0  0  0  0  0  0  0  0  0  0  0
   -6.0221    2.1678    0.0000 C   0  0  0  0  0  0  0  0  0  0  0  0
   -6.7518    3.4783    0.0000 C   0  0  0  0  0  0  0  0  0  0  0  0
   -8.2516    3.5017    0.0000 C   0  0  0  0  0  0  0  0  0  0  0  0
   -9.0217    2.2144    0.0000 C   0  0  0  0  0  0  0  0  0  0  0  0
  -10.5216    2.2378    0.0000 C   0  0  0  0  0  0  0  0  0  0  0  0
  -11.2917    0.9506    0.0000 O   0  0  0  0  0  0  0  0  0  0  0  0
  -11.2513    3.5483    0.0000 O   0  0  0  0  0  0  0  0  0  0  0  0
   -8.2920    0.9039    0.0000 C   0  0  0  0  0  0  0  0  0  0  0  0
   -6.7922    0.8805    0.0000 C   0  0  0  0  0  0  0  0  0  0  0  0
  1  2  1  0
  2  3  1  0
  3  4  1  0
  4  5  1  0
  5  6  1  0
  6  7  1  0
  8  7  1  6
  8  9  1  0
  9 10  1  0
 10 11  1  1
 11 12  2  0
 11 13  1  0
 13 14  1  0
 14 15  1  0
 15 16  2  0
 16 17  1  0
 17 18  2  0
 18 19  1  0
 19 20  2  0
 13 21  1  0
 21 22  1  0
 22 23  2  0
 23 24  1  0
 24 25  2  0
 25 26  1  0
 26 27  2  0
 10 28  1  0
 28 29  2  0
 28 30  1  0
 30 31  1  0
 31 32  1  0
 32 33  1  0
 33 34  1  0
 34 35  1  0
 35 36  1  0
 36 37  2  0
 37 38  1  0
 38 39  1  0
 39 40  2  0
 39 41  1  0
 38 42  2  0
 42 43  1  0
 30  8  1  0
 43 35  2  0
 20 15  1  0
 27 22  1  0
M  END
