
     RDKit          2D

 38 41  0  0  0  0  0  0  0  0999 V2000
    4.6597    2.3867    0.0000 C   0  0  0  0  0  0  0  0  0  0  0  0
    5.6142    1.2295    0.0000 C   0  0  0  0  0  0  0  0  0  0  0  0
    7.0935    1.4776    0.0000 C   0  0  0  0  0  0  0  0  0  0  0  0
    8.0480    0.3204    0.0000 C   0  0  0  0  0  0  0  0  0  0  0  0
    7.5232   -1.0848    0.0000 O   0  0  0  0  0  0  0  0  0  0  0  0
    9.5274    0.5685    0.0000 C   0  0  0  0  0  0  0  0  0  0  0  0
   10.4819   -0.5887    0.0000 C   0  0  0  0  0  0  0  0  0  0  0  0
   11.9612   -0.3406    0.0000 C   0  0  0  0  0  0  0  0  0  0  0  0
   12.4861    1.0645    0.0000 C   0  0  0  0  0  0  0  0  0  0  0  0
   11.5316    2.2217    0.0000 C   0  0  0  0  0  0  0  0  0  0  0  0
   10.0522    1.9736    0.0000 C   0  0  0  0  0  0  0  0  0  0  0  0
    5.0893   -0.1757    0.0000 N   0  0  0  0  0  0  0  0  0  0  0  0
    3.6100   -0.4237    0.0000 C   0  0  0  0  0  0  0  0  0  0  0  0
    3.0851   -1.8289    0.0000 C   0  0  0  0  0  0  0  0  0  0  0  0
    1.6058   -2.0769    0.0000 C   0  0  0  0  0  0  0  0  0  0  0  0
    0.6513   -0.9198    0.0000 C   0  0  0  0  0  0  0  0  0  0  0  0
   -0.8281   -1.1678    0.0000 C   0  0  0  0  0  0  0  0  0  0  0  0
   -1.3529   -2.5730    0.0000 C   0  0  0  0  0  0  0  0  0  0  0  0
   -2.8323   -2.8210    0.0000 O   0  0  0  0  0  0  0  0  0  0  0  0
   -3.7868   -1.6639    0.0000 C   0  0  0  0  0  0  0  0  0  0  0  0
   -5.2661   -1.9119    0.0000 C   0  0  0  0  0  0  0  0  0  0  0  0
   -6.2206   -0.7548    0.0000 C   0  0  0  0  0  0  0  0  0  0  0  0
   -7.7178   -0.8468    0.0000 N   0  0  0  0  0  0  0  0  0  0  0  0
   -8.2680    0.5486    0.0000 C   0  0  0  0  0  0  0  0  0  0  0  0
   -9.7203    0.9238    0.0000 C   0  0  0  0  0  0  0  0  0  0  0  0
  -10.1216    2.3691    0.0000 C   0  0  0  0  0  0  0  0  0  0  0  0
  -11.5740    2.7442    0.0000 C   0  0  0  0  0  0  0  0  0  0  0  0
  -12.6250    1.6740    0.0000 C   0  0  0  0  0  0  0  0  0  0  0  0
  -12.2237    0.2287    0.0000 C   0  0  0  0  0  0  0  0  0  0  0  0
  -10.7713   -0.1465    0.0000 C   0  0  0  0  0  0  0  0  0  0  0  0
   -7.1108    1.5031    0.0000 O   0  0  0  0  0  0  0  0  0  0  0  0
   -5.8455    0.6976    0.0000 C   0  0  0  0  0  0  0  0  0  0  0  0
   -4.4500    1.2478    0.0000 C   0  0  0  0  0  0  0  0  0  0  0  0
   -0.3985   -3.7301    0.0000 C   0  0  0  0  0  0  0  0  0  0  0  0
    1.0809   -3.4821    0.0000 C   0  0  0  0  0  0  0  0  0  0  0  0
    2.6555    0.7334    0.0000 C   0  0  0  0  0  0  0  0  0  0  0  0
    3.1804    2.1386    0.0000 O   0  0  0  0  0  0  0  0  0  0  0  0
    1.1761    0.4854    0.0000 O   0  0  0  0  0  0  0  0  0  0  0  0
  1  2  1  0
  2  3  2  0
  3  4  1  0
  4  5  2  0
  4  6  1  0
  6  7  2  0
  7  8  1  0
  8  9  2  0
  9 10  1  0
 10 11  2  0
  2 12  1  0
 12 13  1  0
 13 14  1  1
 14 15  1  0
 15 16  1  0
 16 17  2  0
 17 18  1  0
 18 19  1  0
 19 20  1  0
 20 21  1  0
 21 22  1  0
 22 23  1  0
 23 24  2  0
 24 25  1  0
 25 26  2  0
 26 27  1  0
 27 28  2  0
 28 29  1  0
 29 30  2  0
 24 31  1  0
 31 32  1  0
 32 33  1  0
 18 34  2  0
 34 35  1  0
 13 36  1  0
 36 37  2  0
 36 38  1  0
 11  6  1  0
 35 15  2  0
 32 22  2  0
 30 25  1  0
M  END
