
     RDKit          2D

 19 20  0  0  0  0  0  0  0  0999 V2000
    0.7097    1.7209    0.0000 O   0  0  0  0  0  0  0  0  0  0  0  0
    0.4575    0.2423    0.0000 C   0  0  0  0  0  0  0  0  0  0  0  0
    1.6119   -0.7155    0.0000 N   0  0  0  0  0  0  0  0  0  0  0  0
    3.0186   -0.1946    0.0000 C   0  0  0  0  0  0  0  0  0  0  0  0
    4.1730   -1.1524    0.0000 C   0  0  0  0  0  0  0  0  0  0  0  0
    5.5796   -0.6315    0.0000 C   0  0  0  0  0  0  0  0  0  0  0  0
    5.8319    0.8471    0.0000 C   0  0  0  0  0  0  0  0  0  0  0  0
    4.6775    1.8049    0.0000 C   0  0  0  0  0  0  0  0  0  0  0  0
    3.2708    1.2840    0.0000 C   0  0  0  0  0  0  0  0  0  0  0  0
   -0.9492   -0.2786    0.0000 C   0  0  0  0  0  0  0  0  0  0  0  0
   -2.1036    0.6792    0.0000 C   0  0  0  0  0  0  0  0  0  0  0  0
   -3.5103    0.1583    0.0000 C   0  0  0  0  0  0  0  0  0  0  0  0
   -4.6647    1.1161    0.0000 N   0  0  0  0  0  0  0  0  0  0  0  0
   -6.0713    0.5953    0.0000 O   0  0  0  0  0  0  0  0  0  0  0  0
   -4.4124    2.5948    0.0000 O   0  0  0  0  0  0  0  0  0  0  0  0
   -3.7625   -1.3203    0.0000 C   0  0  0  0  0  0  0  0  0  0  0  0
   -2.6081   -2.2781    0.0000 C   0  0  0  0  0  0  0  0  0  0  0  0
   -1.2014   -1.7572    0.0000 C   0  0  0  0  0  0  0  0  0  0  0  0
   -0.0470   -2.7150    0.0000 Cl  0  0  0  0  0  0  0  0  0  0  0  0
  1  2  2  0
  2  3  1  0
  3  4  1  0
  4  5  2  0
  5  6  1  0
  6  7  2  0
  7  8  1  0
  8  9  2  0
  2 10  1  0
 10 11  1  0
 11 12  2  0
 12 13  1  0
 13 14  2  0
 13 15  1  0
 12 16  1  0
 16 17  2  0
 17 18  1  0
 18 19  1  0
  9  4  1  0
 18 10  2  0
M  CHG  2  13   1  15  -1
M  END
