
     RDKit          2D

 39 40  0  0  0  0  0  0  0  0999 V2000
   -7.4644   -2.4544    0.0000 C   0  0  0  0  0  0  0  0  0  0  0  0
   -5.9669   -2.5406    0.0000 C   0  0  0  0  0  0  0  0  0  0  0  0
   -5.2928   -3.8806    0.0000 C   0  0  0  0  0  0  0  0  0  0  0  0
   -5.1435   -1.2868    0.0000 C   0  0  0  0  0  0  0  0  0  0  0  0
   -3.6460   -1.3730    0.0000 C   0  0  0  0  0  0  0  0  0  0  0  0
   -2.8226   -0.1192    0.0000 C   0  0  0  0  0  0  0  0  0  0  0  0
   -1.3250   -0.2053    0.0000 C   0  0  0  0  0  0  0  0  0  0  0  0
   -1.6700   -1.6652    0.0000 C   0  0  0  0  0  0  0  0  0  0  0  0
   -1.5002    1.2844    0.0000 C   0  0  0  0  0  0  0  0  0  0  0  0
   -2.8779    1.8776    0.0000 C   0  0  0  0  0  0  0  0  0  0  0  0
   -3.0531    3.3673    0.0000 C   0  0  0  0  0  0  0  0  0  0  0  0
   -4.4308    3.9605    0.0000 C   0  0  0  0  0  0  0  0  0  0  0  0
   -4.6060    5.4502    0.0000 C   0  0  0  0  0  0  0  0  0  0  0  0
   -5.6334    3.0639    0.0000 C   0  0  0  0  0  0  0  0  0  0  0  0
   -0.2976    2.1810    0.0000 C   0  0  0  0  0  0  0  0  0  0  0  0
    1.0801    1.5878    0.0000 C   0  0  0  0  0  0  0  0  0  0  0  0
    2.2827    2.4843    0.0000 C   0  0  0  0  0  0  0  0  0  0  0  0
    2.1075    3.9741    0.0000 C   0  0  0  0  0  0  0  0  0  0  0  0
    3.3101    4.8706    0.0000 C   0  0  0  0  0  0  0  0  0  0  0  0
    3.1349    6.3604    0.0000 C   0  0  0  0  0  0  0  0  0  0  0  0
    4.6878    4.2775    0.0000 C   0  0  0  0  0  0  0  0  0  0  0  0
    1.2553    0.0980    0.0000 C   0  0  0  0  0  0  0  0  0  0  0  0
    2.7356   -0.1441    0.0000 O   0  0  0  0  0  0  0  0  0  0  0  0
    0.0527   -0.7985    0.0000 C   0  0  0  0  0  0  0  0  0  0  0  0
    0.2279   -2.2883    0.0000 C   0  0  0  0  0  0  0  0  0  0  0  0
    0.9162   -2.6904    0.0000 O   0  0  0  0  0  0  0  0  0  0  0  0
   -0.9747   -3.1848    0.0000 C   0  0  0  0  0  0  0  0  0  0  0  0
   -0.7995   -4.6746    0.0000 C   0  0  0  0  0  0  0  0  0  0  0  0
   -2.3524   -2.5917    0.0000 C   0  0  0  0  0  0  0  0  0  0  0  0
    1.4304   -1.3917    0.0000 C   0  0  0  0  0  0  0  0  0  0  0  0
    1.6193   -2.1661    0.0000 O   0  0  0  0  0  0  0  0  0  0  0  0
    2.6330   -0.4951    0.0000 C   0  0  0  0  0  0  0  0  0  0  0  0
    4.0107   -1.0883    0.0000 C   0  0  0  0  0  0  0  0  0  0  0  0
    4.1859   -2.5780    0.0000 C   0  0  0  0  0  0  0  0  0  0  0  0
    5.5636   -3.1712    0.0000 C   0  0  0  0  0  0  0  0  0  0  0  0
    5.7388   -4.6609    0.0000 C   0  0  0  0  0  0  0  0  0  0  0  0
    6.7662   -2.2746    0.0000 C   0  0  0  0  0  0  0  0  0  0  0  0
    2.4578    0.9946    0.0000 C   0  0  0  0  0  0  0  0  0  0  0  0
    3.6604    1.8912    0.0000 O   0  0  0  0  0  0  0  0  0  0  0  0
  1  2  1  0
  2  3  1  0
  2  4  2  0
  4  5  1  0
  5  6  1  0
  6  7  1  0
  7  8  1  1
  7  9  1  0
  9 10  1  1
 10 11  1  0
 11 12  2  0
 12 13  1  0
 12 14  1  0
  9 15  1  0
 15 16  1  0
 16 17  1  1
 17 18  1  0
 18 19  2  0
 19 20  1  0
 19 21  1  0
 16 22  1  0
 22 23  2  0
 22 24  1  0
 24 25  1  1
 25 26  2  0
 25 27  1  0
 27 28  1  0
 27 29  1  0
 24 30  1  0
 30 31  2  0
 30 32  1  0
 32 33  1  0
 33 34  1  0
 34 35  2  0
 35 36  1  0
 35 37  1  0
 32 38  2  0
 38 39  1  0
 24  7  1  0
 38 16  1  0
M  END
