
     RDKit          2D

 25 27  0  0  0  0  0  0  0  0999 V2000
   -6.8832    1.8644    0.0000 C   0  0  0  0  0  0  0  0  0  0  0  0
   -6.0516    0.6160    0.0000 O   0  0  0  0  0  0  0  0  0  0  0  0
   -4.5547    0.7119    0.0000 C   0  0  0  0  0  0  0  0  0  0  0  0
   -3.8893    2.0563    0.0000 C   0  0  0  0  0  0  0  0  0  0  0  0
   -2.3924    2.1522    0.0000 C   0  0  0  0  0  0  0  0  0  0  0  0
   -1.5608    0.9038    0.0000 C   0  0  0  0  0  0  0  0  0  0  0  0
   -2.2262   -0.4405    0.0000 C   0  0  0  0  0  0  0  0  0  0  0  0
   -3.7231   -0.5365    0.0000 C   0  0  0  0  0  0  0  0  0  0  0  0
   -1.1532   -1.4888    0.0000 C   0  0  0  0  0  0  0  0  0  0  0  0
   -1.3706   -2.9729    0.0000 C   0  0  0  0  0  0  0  0  0  0  0  0
   -0.1940   -3.9033    0.0000 C   0  0  0  0  0  0  0  0  0  0  0  0
    1.2000   -3.3494    0.0000 O   0  0  0  0  0  0  0  0  0  0  0  0
   -0.4114   -5.3874    0.0000 O   0  0  0  0  0  0  0  0  0  0  0  0
    0.1752   -0.7923    0.0000 C   0  0  0  0  0  0  0  0  0  0  0  0
    1.5196   -1.4576    0.0000 C   0  0  0  0  0  0  0  0  0  0  0  0
   -0.0766    0.6864    0.0000 N   0  0  0  0  0  0  0  0  0  0  0  0
    0.9716    1.7594    0.0000 C   0  0  0  0  0  0  0  0  0  0  0  0
    0.5665    3.2037    0.0000 O   0  0  0  0  0  0  0  0  0  0  0  0
    2.4249    1.3881    0.0000 C   0  0  0  0  0  0  0  0  0  0  0  0
    2.8300   -0.0562    0.0000 C   0  0  0  0  0  0  0  0  0  0  0  0
    4.2833   -0.4275    0.0000 C   0  0  0  0  0  0  0  0  0  0  0  0
    5.3315    0.6454    0.0000 C   0  0  0  0  0  0  0  0  0  0  0  0
    6.7848    0.2741    0.0000 Cl  0  0  0  0  0  0  0  0  0  0  0  0
    4.9264    2.0897    0.0000 C   0  0  0  0  0  0  0  0  0  0  0  0
    3.4731    2.4610    0.0000 C   0  0  0  0  0  0  0  0  0  0  0  0
  1  2  1  0
  2  3  1  0
  3  4  1  0
  4  5  2  0
  5  6  1  0
  6  7  2  0
  7  8  1  0
  7  9  1  0
  9 10  1  0
 10 11  1  0
 11 12  2  0
 11 13  1  0
  9 14  2  0
 14 15  1  0
 14 16  1  0
 16 17  1  0
 17 18  2  0
 17 19  1  0
 19 20  1  0
 20 21  2  0
 21 22  1  0
 22 23  1  0
 22 24  2  0
 24 25  1  0
  8  3  2  0
 25 19  2  0
 16  6  1  0
M  END
