
     RDKit          2D

 31 34  0  0  0  0  0  0  0  0999 V2000
   -2.1908   -0.2983    0.0000 O   0  0  0  0  0  0  0  0  0  0  0  0
   -3.5038   -1.0237    0.0000 S   0  0  0  0  0  0  0  0  0  0  0  0
   -4.8167   -1.7492    0.0000 O   0  0  0  0  0  0  0  0  0  0  0  0
   -2.7783   -2.3367    0.0000 N   0  0  0  0  0  0  0  0  0  0  0  0
   -1.2786   -2.3649    0.0000 C   0  0  0  0  0  0  0  0  0  0  0  0
   -0.5532   -3.6778    0.0000 C   0  0  0  0  0  0  0  0  0  0  0  0
    0.9465   -3.7061    0.0000 C   0  0  0  0  0  0  0  0  0  0  0  0
    1.6719   -5.0190    0.0000 Cl  0  0  0  0  0  0  0  0  0  0  0  0
    1.7209   -2.4214    0.0000 C   0  0  0  0  0  0  0  0  0  0  0  0
    3.2206   -2.4496    0.0000 O   0  0  0  0  0  0  0  0  0  0  0  0
    3.9949   -1.1649    0.0000 C   0  0  0  0  0  0  0  0  0  0  0  0
    5.4946   -1.1932    0.0000 C   0  0  0  0  0  0  0  0  0  0  0  0
    6.2690    0.0915    0.0000 N   0  0  0  0  0  0  0  0  0  0  0  0
    5.5435    1.4045    0.0000 C   0  0  0  0  0  0  0  0  0  0  0  0
    6.3179    2.6891    0.0000 C   0  0  0  0  0  0  0  0  0  0  0  0
    5.5925    4.0021    0.0000 C   0  0  0  0  0  0  0  0  0  0  0  0
    4.0927    4.0303    0.0000 C   0  0  0  0  0  0  0  0  0  0  0  0
    3.3184    2.7456    0.0000 C   0  0  0  0  0  0  0  0  0  0  0  0
    4.0438    1.4327    0.0000 C   0  0  0  0  0  0  0  0  0  0  0  0
    3.2695    0.1480    0.0000 C   0  0  0  0  0  0  0  0  0  0  0  0
    0.9954   -1.1085    0.0000 C   0  0  0  0  0  0  0  0  0  0  0  0
    1.7698    0.1762    0.0000 Cl  0  0  0  0  0  0  0  0  0  0  0  0
   -0.5043   -1.0802    0.0000 C   0  0  0  0  0  0  0  0  0  0  0  0
   -4.2292    0.2892    0.0000 C   0  0  0  0  0  0  0  0  0  0  0  0
   -3.4549    1.5739    0.0000 C   0  0  0  0  0  0  0  0  0  0  0  0
   -4.1803    2.8868    0.0000 C   0  0  0  0  0  0  0  0  0  0  0  0
   -5.6800    2.9150    0.0000 C   0  0  0  0  0  0  0  0  0  0  0  0
   -6.4054    4.2280    0.0000 Cl  0  0  0  0  0  0  0  0  0  0  0  0
   -6.4543    1.6303    0.0000 C   0  0  0  0  0  0  0  0  0  0  0  0
   -5.7289    0.3174    0.0000 C   0  0  0  0  0  0  0  0  0  0  0  0
   -6.5032   -0.9673    0.0000 Cl  0  0  0  0  0  0  0  0  0  0  0  0
  1  2  2  0
  2  3  2  0
  2  4  1  0
  4  5  1  0
  5  6  2  0
  6  7  1  0
  7  8  1  0
  7  9  2  0
  9 10  1  0
 10 11  1  0
 11 12  1  0
 12 13  2  0
 13 14  1  0
 14 15  2  0
 15 16  1  0
 16 17  2  0
 17 18  1  0
 18 19  2  0
 19 20  1  0
  9 21  1  0
 21 22  1  0
 21 23  2  0
  2 24  1  0
 24 25  1  0
 25 26  2  0
 26 27  1  0
 27 28  1  0
 27 29  2  0
 29 30  1  0
 30 31  1  0
 23  5  1  0
 30 24  2  0
 20 11  2  0
 19 14  1  0
M  END
