
     RDKit          2D

 34 38  0  0  0  0  0  0  0  0999 V2000
   -4.0021   -2.6526    0.0000 C   0  0  0  0  0  0  0  0  0  0  0  0
   -4.6165   -1.2843    0.0000 C   0  0  0  0  0  0  0  0  0  0  0  0
   -6.1088   -1.1322    0.0000 C   0  0  0  0  0  0  0  0  0  0  0  0
   -6.9866   -2.3485    0.0000 C   0  0  0  0  0  0  0  0  0  0  0  0
   -6.7232    0.2362    0.0000 C   0  0  0  0  0  0  0  0  0  0  0  0
   -5.8454    1.4525    0.0000 C   0  0  0  0  0  0  0  0  0  0  0  0
   -4.3531    1.3004    0.0000 C   0  0  0  0  0  0  0  0  0  0  0  0
   -4.9675    2.6688    0.0000 C   0  0  0  0  0  0  0  0  0  0  0  0
   -3.4753    2.5167    0.0000 C   0  0  0  0  0  0  0  0  0  0  0  0
   -1.9830    2.3647    0.0000 C   0  0  0  0  0  0  0  0  0  0  0  0
   -1.3686    0.9963    0.0000 C   0  0  0  0  0  0  0  0  0  0  0  0
   -0.7541   -0.3721    0.0000 C   0  0  0  0  0  0  0  0  0  0  0  0
   -2.2464   -0.2200    0.0000 C   0  0  0  0  0  0  0  0  0  0  0  0
   -1.6320   -1.5884    0.0000 C   0  0  0  0  0  0  0  0  0  0  0  0
   -0.1397   -1.7405    0.0000 C   0  0  0  0  0  0  0  0  0  0  0  0
    0.4748   -3.1088    0.0000 O   0  0  0  0  0  0  0  0  0  0  0  0
    0.7382   -0.5242    0.0000 C   0  0  0  0  0  0  0  0  0  0  0  0
    2.2304   -0.6762    0.0000 C   0  0  0  0  0  0  0  0  0  0  0  0
    1.3526   -1.8925    0.0000 C   0  0  0  0  0  0  0  0  0  0  0  0
    2.8449   -2.0446    0.0000 C   0  0  0  0  0  0  0  0  0  0  0  0
    4.3371   -2.1967    0.0000 C   0  0  0  0  0  0  0  0  0  0  0  0
    5.2150   -0.9804    0.0000 C   0  0  0  0  0  0  0  0  0  0  0  0
    6.6776   -1.3132    0.0000 O   0  0  0  0  0  0  0  0  0  0  0  0
    4.6005    0.3880    0.0000 C   0  0  0  0  0  0  0  0  0  0  0  0
    4.4912    1.8840    0.0000 C   0  0  0  0  0  0  0  0  0  0  0  0
    6.0548    0.7555    0.0000 C   0  0  0  0  0  0  0  0  0  0  0  0
    7.2235   -0.1847    0.0000 O   0  0  0  0  0  0  0  0  0  0  0  0
    6.4637    2.1987    0.0000 O   0  0  0  0  0  0  0  0  0  0  0  0
    3.1083    0.5401    0.0000 C   0  0  0  0  0  0  0  0  0  0  0  0
    2.4938    1.9085    0.0000 C   0  0  0  0  0  0  0  0  0  0  0  0
    1.0015    2.0605    0.0000 C   0  0  0  0  0  0  0  0  0  0  0  0
    0.1237    0.8442    0.0000 C   0  0  0  0  0  0  0  0  0  0  0  0
   -0.4907    2.2126    0.0000 C   0  0  0  0  0  0  0  0  0  0  0  0
   -3.7387   -0.0679    0.0000 C   0  0  0  0  0  0  0  0  0  0  0  0
  2  1  1  1
  2  3  1  0
  3  4  1  6
  3  5  1  0
  5  6  1  0
  6  7  1  0
  7  8  1  1
  7  9  1  0
  9 10  1  0
 10 11  1  0
 11 12  1  6
 11 13  1  0
 13 14  2  0
 14 15  1  0
 15 16  2  0
 17 15  1  1
 17 18  1  0
 18 19  1  1
 18 20  1  0
 20 21  1  0
 21 22  1  0
 22 23  1  6
 22 24  1  0
 24 25  1  6
 24 26  1  0
 26 27  2  0
 26 28  1  0
 24 29  1  0
 29 30  1  1
 30 31  1  0
 31 32  1  0
 32 33  1  1
 34 13  1  6
 34  2  1  0
 34  7  1  0
 32 11  1  0
 32 17  1  0
 29 18  1  0
M  END
