
     RDKit          2D

 32 35  0  0  0  0  0  0  0  0999 V2000
   -4.9136   -3.9245    0.0000 C   0  0  0  0  0  0  0  0  0  0  0  0
   -5.0979   -2.4358    0.0000 O   0  0  0  0  0  0  0  0  0  0  0  0
   -3.9009   -1.5319    0.0000 C   0  0  0  0  0  0  0  0  0  0  0  0
   -2.5195   -2.1167    0.0000 C   0  0  0  0  0  0  0  0  0  0  0  0
   -1.3225   -1.2127    0.0000 C   0  0  0  0  0  0  0  0  0  0  0  0
   -0.4697   -1.7040    0.0000 O   0  0  0  0  0  0  0  0  0  0  0  0
   -1.5067    0.2759    0.0000 C   0  0  0  0  0  0  0  0  0  0  0  0
   -0.3097    1.1798    0.0000 C   0  0  0  0  0  0  0  0  0  0  0  0
   -0.4939    2.6684    0.0000 C   0  0  0  0  0  0  0  0  0  0  0  0
   -1.8753    3.2532    0.0000 C   0  0  0  0  0  0  0  0  0  0  0  0
    0.7031    3.5723    0.0000 C   0  0  0  0  0  0  0  0  0  0  0  0
    2.0845    2.9876    0.0000 C   0  0  0  0  0  0  0  0  0  0  0  0
    3.2815    3.8915    0.0000 O   0  0  0  0  0  0  0  0  0  0  0  0
    2.2687    1.4990    0.0000 C   0  0  0  0  0  0  0  0  0  0  0  0
    1.0717    0.5951    0.0000 C   0  0  0  0  0  0  0  0  0  0  0  0
    1.2559   -0.8936    0.0000 C   0  0  0  0  0  0  0  0  0  0  0  0
    0.5487   -1.5780    0.0000 O   0  0  0  0  0  0  0  0  0  0  0  0
    2.6373   -1.4783    0.0000 C   0  0  0  0  0  0  0  0  0  0  0  0
    2.8215   -2.9670    0.0000 C   0  0  0  0  0  0  0  0  0  0  0  0
    4.2029   -3.5517    0.0000 C   0  0  0  0  0  0  0  0  0  0  0  0
    5.3999   -2.6478    0.0000 C   0  0  0  0  0  0  0  0  0  0  0  0
    5.2157   -1.1592    0.0000 C   0  0  0  0  0  0  0  0  0  0  0  0
    6.4127   -0.2553    0.0000 O   0  0  0  0  0  0  0  0  0  0  0  0
    3.8343   -0.5744    0.0000 C   0  0  0  0  0  0  0  0  0  0  0  0
    3.6501    0.9142    0.0000 C   0  0  0  0  0  0  0  0  0  0  0  0
    4.8471    1.8181    0.0000 O   0  0  0  0  0  0  0  0  0  0  0  0
   -2.8881    0.8606    0.0000 C   0  0  0  0  0  0  0  0  0  0  0  0
   -3.0723    2.3493    0.0000 O   0  0  0  0  0  0  0  0  0  0  0  0
   -4.0851   -0.0433    0.0000 C   0  0  0  0  0  0  0  0  0  0  0  0
   -5.4665    0.5415    0.0000 C   0  0  0  0  0  0  0  0  0  0  0  0
   -6.6635   -0.3624    0.0000 C   0  0  0  0  0  0  0  0  0  0  0  0
   -5.6507    2.0301    0.0000 O   0  0  0  0  0  0  0  0  0  0  0  0
  1  2  1  0
  2  3  1  0
  3  4  1  0
  4  5  2  0
  5  6  1  0
  5  7  1  0
  7  8  1  0
  8  9  1  0
  9 10  1  0
  9 11  2  0
 11 12  1  0
 12 13  1  0
 12 14  2  0
 14 15  1  0
 15 16  1  0
 16 17  2  0
 16 18  1  0
 18 19  2  0
 19 20  1  0
 20 21  2  0
 21 22  1  0
 22 23  1  0
 22 24  2  0
 24 25  1  0
 25 26  2  0
  7 27  2  0
 27 28  1  0
 27 29  1  0
 29 30  1  0
 30 31  1  0
 30 32  2  0
 29  3  2  0
 15  8  2  0
 24 18  1  0
 25 14  1  0
M  END
