
     RDKit          2D

 35 40  0  0  0  0  0  0  0  0999 V2000
   -7.1024    5.3756    0.0000 N   0  0  0  0  0  0  0  0  0  0  0  0
   -6.4237    4.0380    0.0000 C   0  0  0  0  0  0  0  0  0  0  0  0
   -5.7449    2.7003    0.0000 C   0  0  0  0  0  0  0  0  0  0  0  0
   -6.5639    1.4437    0.0000 C   0  0  0  0  0  0  0  0  0  0  0  0
   -5.8852    0.1060    0.0000 C   0  0  0  0  0  0  0  0  0  0  0  0
   -6.7042   -1.1506    0.0000 C   0  0  0  0  0  0  0  0  0  0  0  0
   -6.1690   -2.5519    0.0000 C   0  0  0  0  0  0  0  0  0  0  0  0
   -7.3363   -3.4939    0.0000 C   0  0  0  0  0  0  0  0  0  0  0  0
   -8.5929   -2.6749    0.0000 O   0  0  0  0  0  0  0  0  0  0  0  0
   -8.2023   -1.2266    0.0000 C   0  0  0  0  0  0  0  0  0  0  0  0
   -4.3873    0.0250    0.0000 C   0  0  0  0  0  0  0  0  0  0  0  0
   -3.7086   -1.3126    0.0000 C   0  0  0  0  0  0  0  0  0  0  0  0
   -2.2108   -1.3936    0.0000 C   0  0  0  0  0  0  0  0  0  0  0  0
   -1.3917   -0.1369    0.0000 C   0  0  0  0  0  0  0  0  0  0  0  0
    0.1061   -0.2179    0.0000 C   0  0  0  0  0  0  0  0  0  0  0  0
    0.7849   -1.5556    0.0000 O   0  0  0  0  0  0  0  0  0  0  0  0
    2.2827   -1.6365    0.0000 C   0  0  0  0  0  0  0  0  0  0  0  0
    2.9614   -2.9742    0.0000 C   0  0  0  0  0  0  0  0  0  0  0  0
    4.4593   -3.0552    0.0000 C   0  0  0  0  0  0  0  0  0  0  0  0
    5.1380   -4.3928    0.0000 F   0  0  0  0  0  0  0  0  0  0  0  0
    5.2783   -1.7985    0.0000 C   0  0  0  0  0  0  0  0  0  0  0  0
    4.5995   -0.4609    0.0000 C   0  0  0  0  0  0  0  0  0  0  0  0
    5.4186    0.7958    0.0000 C   0  0  0  0  0  0  0  0  0  0  0  0
    4.0388    1.3842    0.0000 O   0  0  0  0  0  0  0  0  0  0  0  0
    6.5139   -0.2290    0.0000 C   0  0  0  0  0  0  0  0  0  0  0  0
    7.9491    0.2071    0.0000 C   0  0  0  0  0  0  0  0  0  0  0  0
    9.1792    1.0655    0.0000 C   0  0  0  0  0  0  0  0  0  0  0  0
    8.7431    2.5006    0.0000 O   0  0  0  0  0  0  0  0  0  0  0  0
    7.2433    2.5293    0.0000 C   0  0  0  0  0  0  0  0  0  0  0  0
    5.7584    2.2568    0.0000 C   0  0  0  0  0  0  0  0  0  0  0  0
    6.7526    1.1118    0.0000 O   0  0  0  0  0  0  0  0  0  0  0  0
    3.1017   -0.3799    0.0000 C   0  0  0  0  0  0  0  0  0  0  0  0
   -2.0705    1.2007    0.0000 C   0  0  0  0  0  0  0  0  0  0  0  0
   -3.5683    1.2817    0.0000 C   0  0  0  0  0  0  0  0  0  0  0  0
   -4.2471    2.6193    0.0000 N   0  0  0  0  0  0  0  0  0  0  0  0
  1  2  3  0
  2  3  1  0
  3  4  2  0
  4  5  1  0
  5  6  1  0
  6  7  1  0
  7  8  2  0
  8  9  1  0
  9 10  1  0
  5 11  2  0
 11 12  1  0
 12 13  2  0
 13 14  1  0
 14 15  1  0
 15 16  1  0
 16 17  1  0
 17 18  1  0
 18 19  2  0
 19 20  1  0
 19 21  1  0
 21 22  2  0
 22 23  1  0
 23 24  1  6
 23 25  1  0
 26 25  1  6
 26 27  1  0
 27 28  1  0
 28 29  1  0
 29 30  1  6
 29 31  1  0
 22 32  1  0
 14 33  2  0
 33 34  1  0
 34 35  2  0
 35  3  1  0
 10  6  2  0
 34 11  1  0
 32 17  2  0
 30 23  1  0
 31 26  1  0
M  END
