
     RDKit          2D

 19 20  0  0  0  0  0  0  0  0999 V2000
   -3.7627   -2.4377    0.0000 C   0  0  0  0  0  0  0  0  0  0  0  0
   -3.2627   -1.0235    0.0000 C   0  0  0  0  0  0  0  0  0  0  0  0
   -4.2374    0.1167    0.0000 C   0  0  0  0  0  0  0  0  0  0  0  0
   -3.7373    1.5309    0.0000 C   0  0  0  0  0  0  0  0  0  0  0  0
   -2.2625    1.8049    0.0000 C   0  0  0  0  0  0  0  0  0  0  0  0
   -1.7625    3.2191    0.0000 Cl  0  0  0  0  0  0  0  0  0  0  0  0
   -1.2878    0.6647    0.0000 C   0  0  0  0  0  0  0  0  0  0  0  0
    0.1869    0.9388    0.0000 N   0  0  0  0  0  0  0  0  0  0  0  0
    1.1616   -0.2014    0.0000 C   0  0  0  0  0  0  0  0  0  0  0  0
    0.6615   -1.6156    0.0000 C   0  0  0  0  0  0  0  0  0  0  0  0
    1.6362   -2.7558    0.0000 C   0  0  0  0  0  0  0  0  0  0  0  0
    3.1110   -2.4817    0.0000 C   0  0  0  0  0  0  0  0  0  0  0  0
    3.6110   -1.0676    0.0000 C   0  0  0  0  0  0  0  0  0  0  0  0
    2.6364    0.0726    0.0000 C   0  0  0  0  0  0  0  0  0  0  0  0
    3.1364    1.4868    0.0000 C   0  0  0  0  0  0  0  0  0  0  0  0
    2.1617    2.6270    0.0000 O   0  0  0  0  0  0  0  0  0  0  0  0
    4.6112    1.7608    0.0000 O   0  0  0  0  0  0  0  0  0  0  0  0
   -1.7879   -0.7494    0.0000 C   0  0  0  0  0  0  0  0  0  0  0  0
   -0.8132   -1.8896    0.0000 Cl  0  0  0  0  0  0  0  0  0  0  0  0
  1  2  1  0
  2  3  1  0
  3  4  2  0
  4  5  1  0
  5  6  1  0
  5  7  2  0
  7  8  1  0
  8  9  1  0
  9 10  2  0
 10 11  1  0
 11 12  2  0
 12 13  1  0
 13 14  2  0
 14 15  1  0
 15 16  2  0
 15 17  1  0
  7 18  1  0
 18 19  1  0
 18  2  2  0
 14  9  1  0
M  END
