
     RDKit          2D

 38 41  0  0  0  0  0  0  0  0999 V2000
    8.8675    1.5554    0.0000 C   0  0  0  0  0  0  0  0  0  0  0  0
    8.0609    2.8201    0.0000 O   0  0  0  0  0  0  0  0  0  0  0  0
    6.5623    2.7539    0.0000 C   0  0  0  0  0  0  0  0  0  0  0  0
    5.8704    1.4230    0.0000 C   0  0  0  0  0  0  0  0  0  0  0  0
    4.3719    1.3568    0.0000 C   0  0  0  0  0  0  0  0  0  0  0  0
    3.5653    2.6215    0.0000 C   0  0  0  0  0  0  0  0  0  0  0  0
    2.0667    2.5553    0.0000 C   0  0  0  0  0  0  0  0  0  0  0  0
    1.2601    3.8199    0.0000 O   0  0  0  0  0  0  0  0  0  0  0  0
    1.3748    1.2244    0.0000 N   0  0  0  0  0  0  0  0  0  0  0  0
   -0.1086    1.0019    0.0000 C   0  0  0  0  0  0  0  0  0  0  0  0
   -1.1605    2.0712    0.0000 C   0  0  0  0  0  0  0  0  0  0  0  0
   -0.3554   -0.4777    0.0000 C   0  0  0  0  0  0  0  0  0  0  0  0
   -1.6975   -1.1477    0.0000 C   0  0  0  0  0  0  0  0  0  0  0  0
   -2.9487   -0.3204    0.0000 C   0  0  0  0  0  0  0  0  0  0  0  0
   -2.8579    1.1769    0.0000 C   0  0  0  0  0  0  0  0  0  0  0  0
   -4.1092    2.0041    0.0000 C   0  0  0  0  0  0  0  0  0  0  0  0
   -5.4512    1.3341    0.0000 C   0  0  0  0  0  0  0  0  0  0  0  0
   -5.5420   -0.1631    0.0000 C   0  0  0  0  0  0  0  0  0  0  0  0
   -6.8841   -0.8331    0.0000 O   0  0  0  0  0  0  0  0  0  0  0  0
   -8.1354   -0.0059    0.0000 C   0  0  0  0  0  0  0  0  0  0  0  0
   -9.4774   -0.6759    0.0000 C   0  0  0  0  0  0  0  0  0  0  0  0
   -8.0446    1.4914    0.0000 C   0  0  0  0  0  0  0  0  0  0  0  0
   -6.7025    2.1614    0.0000 O   0  0  0  0  0  0  0  0  0  0  0  0
   -9.2958    2.3186    0.0000 O   0  0  0  0  0  0  0  0  0  0  0  0
   -4.2908   -0.9904    0.0000 C   0  0  0  0  0  0  0  0  0  0  0  0
    0.9755   -1.1696    0.0000 C   0  0  0  0  0  0  0  0  0  0  0  0
    1.3518   -2.6216    0.0000 C   0  0  0  0  0  0  0  0  0  0  0  0
    2.7974   -3.0217    0.0000 C   0  0  0  0  0  0  0  0  0  0  0  0
    3.1738   -4.4738    0.0000 O   0  0  0  0  0  0  0  0  0  0  0  0
    2.1044   -5.5257    0.0000 C   0  0  0  0  0  0  0  0  0  0  0  0
    1.0351   -6.5776    0.0000 F   0  0  0  0  0  0  0  0  0  0  0  0
    3.1563   -6.5950    0.0000 F   0  0  0  0  0  0  0  0  0  0  0  0
    1.0525   -4.4563    0.0000 F   0  0  0  0  0  0  0  0  0  0  0  0
    3.8668   -1.9698    0.0000 C   0  0  0  0  0  0  0  0  0  0  0  0
    3.4904   -0.5178    0.0000 C   0  0  0  0  0  0  0  0  0  0  0  0
    2.0448   -0.1177    0.0000 C   0  0  0  0  0  0  0  0  0  0  0  0
    4.2572    3.9523    0.0000 C   0  0  0  0  0  0  0  0  0  0  0  0
    5.7557    4.0185    0.0000 C   0  0  0  0  0  0  0  0  0  0  0  0
  1  2  1  0
  2  3  1  0
  3  4  1  0
  4  5  2  0
  5  6  1  0
  6  7  1  0
  7  8  2  0
  7  9  1  0
  9 10  1  0
 10 11  1  0
 10 12  2  0
 12 13  1  0
 13 14  1  0
 14 15  1  0
 15 16  2  0
 16 17  1  0
 17 18  2  0
 18 19  1  0
 19 20  1  0
 20 21  1  1
 20 22  1  0
 22 23  2  0
 22 24  1  0
 18 25  1  0
 12 26  1  0
 26 27  1  0
 27 28  2  0
 28 29  1  0
 29 30  1  0
 30 31  1  0
 30 32  1  0
 30 33  1  0
 28 34  1  0
 34 35  2  0
 35 36  1  0
  6 37  2  0
 37 38  1  0
 38  3  2  0
 36  9  1  0
 25 14  2  0
 36 26  2  0
M  END
