
     RDKit          2D

 38 41  0  0  0  0  0  0  0  0999 V2000
    8.8325   -0.5053    0.0000 C   0  0  0  0  0  0  0  0  0  0  0  0
    8.4320    0.9402    0.0000 O   0  0  0  0  0  0  0  0  0  0  0  0
    6.9799    1.3162    0.0000 C   0  0  0  0  0  0  0  0  0  0  0  0
    5.9283    0.2466    0.0000 C   0  0  0  0  0  0  0  0  0  0  0  0
    4.4762    0.6226    0.0000 C   0  0  0  0  0  0  0  0  0  0  0  0
    4.0757    2.0681    0.0000 C   0  0  0  0  0  0  0  0  0  0  0  0
    2.6236    2.4441    0.0000 C   0  0  0  0  0  0  0  0  0  0  0  0
    2.2231    3.8897    0.0000 O   0  0  0  0  0  0  0  0  0  0  0  0
    1.5719    1.3745    0.0000 N   0  0  0  0  0  0  0  0  0  0  0  0
    0.0885    1.5966    0.0000 C   0  0  0  0  0  0  0  0  0  0  0  0
   -0.6038    2.9274    0.0000 C   0  0  0  0  0  0  0  0  0  0  0  0
   -0.5812    0.2544    0.0000 C   0  0  0  0  0  0  0  0  0  0  0  0
   -2.0607    0.0073    0.0000 C   0  0  0  0  0  0  0  0  0  0  0  0
   -3.0145    1.1650    0.0000 C   0  0  0  0  0  0  0  0  0  0  0  0
   -2.4888    2.5698    0.0000 C   0  0  0  0  0  0  0  0  0  0  0  0
   -3.4426    3.7275    0.0000 C   0  0  0  0  0  0  0  0  0  0  0  0
   -4.9221    3.4804    0.0000 C   0  0  0  0  0  0  0  0  0  0  0  0
   -5.4478    2.0755    0.0000 C   0  0  0  0  0  0  0  0  0  0  0  0
   -4.4940    0.9178    0.0000 C   0  0  0  0  0  0  0  0  0  0  0  0
   -5.0197   -0.4871    0.0000 O   0  0  0  0  0  0  0  0  0  0  0  0
   -6.4992   -0.7342    0.0000 C   0  0  0  0  0  0  0  0  0  0  0  0
   -7.0249   -2.1391    0.0000 C   0  0  0  0  0  0  0  0  0  0  0  0
   -7.4530    0.4235    0.0000 C   0  0  0  0  0  0  0  0  0  0  0  0
   -6.9273    1.8283    0.0000 O   0  0  0  0  0  0  0  0  0  0  0  0
   -8.9325    0.1763    0.0000 O   0  0  0  0  0  0  0  0  0  0  0  0
    0.4884   -0.7972    0.0000 C   0  0  0  0  0  0  0  0  0  0  0  0
    0.4225   -2.2958    0.0000 C   0  0  0  0  0  0  0  0  0  0  0  0
    1.6874   -3.1021    0.0000 C   0  0  0  0  0  0  0  0  0  0  0  0
    1.6216   -4.6006    0.0000 O   0  0  0  0  0  0  0  0  0  0  0  0
    0.2909   -5.2929    0.0000 C   0  0  0  0  0  0  0  0  0  0  0  0
   -1.0399   -5.9852    0.0000 F   0  0  0  0  0  0  0  0  0  0  0  0
    0.9831   -6.6236    0.0000 F   0  0  0  0  0  0  0  0  0  0  0  0
   -0.4014   -3.9622    0.0000 F   0  0  0  0  0  0  0  0  0  0  0  0
    3.0181   -2.4098    0.0000 C   0  0  0  0  0  0  0  0  0  0  0  0
    3.0839   -0.9113    0.0000 C   0  0  0  0  0  0  0  0  0  0  0  0
    1.8191   -0.1050    0.0000 C   0  0  0  0  0  0  0  0  0  0  0  0
    5.1273    3.1377    0.0000 C   0  0  0  0  0  0  0  0  0  0  0  0
    6.5795    2.7618    0.0000 C   0  0  0  0  0  0  0  0  0  0  0  0
  1  2  1  0
  2  3  1  0
  3  4  1  0
  4  5  2  0
  5  6  1  0
  6  7  1  0
  7  8  2  0
  7  9  1  0
  9 10  1  0
 10 11  1  0
 10 12  2  0
 12 13  1  0
 13 14  1  0
 14 15  2  0
 15 16  1  0
 16 17  2  0
 17 18  1  0
 18 19  2  0
 19 20  1  0
 20 21  1  0
 21 22  1  1
 21 23  1  0
 23 24  2  0
 23 25  1  0
 12 26  1  0
 26 27  1  0
 27 28  2  0
 28 29  1  0
 29 30  1  0
 30 31  1  0
 30 32  1  0
 30 33  1  0
 28 34  1  0
 34 35  2  0
 35 36  1  0
  6 37  2  0
 37 38  1  0
 38  3  2  0
 36  9  1  0
 19 14  1  0
 36 26  2  0
M  END
