
     RDKit          2D

 38 41  0  0  0  0  0  0  0  0999 V2000
   -8.5413    6.1901    0.0000 C   0  0  0  0  0  0  0  0  0  0  0  0
   -7.1560    5.6149    0.0000 O   0  0  0  0  0  0  0  0  0  0  0  0
   -6.9615    4.1276    0.0000 C   0  0  0  0  0  0  0  0  0  0  0  0
   -8.1523    3.2155    0.0000 C   0  0  0  0  0  0  0  0  0  0  0  0
   -7.9577    1.7281    0.0000 C   0  0  0  0  0  0  0  0  0  0  0  0
   -6.5724    1.1529    0.0000 C   0  0  0  0  0  0  0  0  0  0  0  0
   -6.3779   -0.3344    0.0000 O   0  0  0  0  0  0  0  0  0  0  0  0
   -4.9925   -0.9096    0.0000 C   0  0  0  0  0  0  0  0  0  0  0  0
   -3.8017    0.0025    0.0000 O   0  0  0  0  0  0  0  0  0  0  0  0
   -4.7980   -2.3969    0.0000 N   0  0  0  0  0  0  0  0  0  0  0  0
   -5.9888   -3.3091    0.0000 C   0  0  0  0  0  0  0  0  0  0  0  0
   -5.7943   -4.7964    0.0000 C   0  0  0  0  0  0  0  0  0  0  0  0
   -4.4090   -5.3716    0.0000 O   0  0  0  0  0  0  0  0  0  0  0  0
   -6.9851   -5.7085    0.0000 O   0  0  0  0  0  0  0  0  0  0  0  0
   -3.4127   -2.9721    0.0000 C   0  0  0  0  0  0  0  0  0  0  0  0
   -2.2219   -2.0600    0.0000 C   0  0  0  0  0  0  0  0  0  0  0  0
   -0.8365   -2.6352    0.0000 C   0  0  0  0  0  0  0  0  0  0  0  0
    0.3543   -1.7230    0.0000 C   0  0  0  0  0  0  0  0  0  0  0  0
    0.1597   -0.2357    0.0000 C   0  0  0  0  0  0  0  0  0  0  0  0
    1.3505    0.6764    0.0000 O   0  0  0  0  0  0  0  0  0  0  0  0
    2.7359    0.1012    0.0000 C   0  0  0  0  0  0  0  0  0  0  0  0
    3.9267    1.0134    0.0000 C   0  0  0  0  0  0  0  0  0  0  0  0
    5.3120    0.4382    0.0000 C   0  0  0  0  0  0  0  0  0  0  0  0
    6.5916    1.2208    0.0000 N   0  0  0  0  0  0  0  0  0  0  0  0
    7.7314    0.2457    0.0000 C   0  0  0  0  0  0  0  0  0  0  0  0
    9.1902    0.5946    0.0000 C   0  0  0  0  0  0  0  0  0  0  0  0
   10.2219   -0.4943    0.0000 C   0  0  0  0  0  0  0  0  0  0  0  0
   11.6807   -0.1454    0.0000 C   0  0  0  0  0  0  0  0  0  0  0  0
   12.1079    1.2925    0.0000 C   0  0  0  0  0  0  0  0  0  0  0  0
   11.0763    2.3814    0.0000 C   0  0  0  0  0  0  0  0  0  0  0  0
    9.6175    2.0325    0.0000 C   0  0  0  0  0  0  0  0  0  0  0  0
    7.1562   -1.1396    0.0000 O   0  0  0  0  0  0  0  0  0  0  0  0
    5.6609   -1.0207    0.0000 C   0  0  0  0  0  0  0  0  0  0  0  0
    4.6858   -2.1605    0.0000 C   0  0  0  0  0  0  0  0  0  0  0  0
   -1.2256    0.3395    0.0000 C   0  0  0  0  0  0  0  0  0  0  0  0
   -2.4164   -0.5726    0.0000 C   0  0  0  0  0  0  0  0  0  0  0  0
   -5.3816    2.0651    0.0000 C   0  0  0  0  0  0  0  0  0  0  0  0
   -5.5761    3.5524    0.0000 C   0  0  0  0  0  0  0  0  0  0  0  0
  1  2  1  0
  2  3  1  0
  3  4  1  0
  4  5  2  0
  5  6  1  0
  6  7  1  0
  7  8  1  0
  8  9  2  0
  8 10  1  0
 10 11  1  0
 11 12  1  0
 12 13  2  0
 12 14  1  0
 10 15  1  0
 15 16  1  0
 16 17  1  0
 17 18  2  0
 18 19  1  0
 19 20  1  0
 20 21  1  0
 21 22  1  0
 22 23  1  0
 23 24  1  0
 24 25  2  0
 25 26  1  0
 26 27  2  0
 27 28  1  0
 28 29  2  0
 29 30  1  0
 30 31  2  0
 25 32  1  0
 32 33  1  0
 33 34  1  0
 19 35  2  0
 35 36  1  0
  6 37  2  0
 37 38  1  0
 38  3  2  0
 36 16  2  0
 33 23  2  0
 31 26  1  0
M  END
