
     RDKit          2D

 22 23  0  0  0  0  0  0  0  0999 V2000
    2.0499   -4.3052    0.0000 C   0  0  0  0  0  0  0  0  0  0  0  0
    1.8560   -2.8178    0.0000 C   0  0  0  0  0  0  0  0  0  0  0  0
    3.0472   -1.9062    0.0000 C   0  0  0  0  0  0  0  0  0  0  0  0
    2.8533   -0.4187    0.0000 C   0  0  0  0  0  0  0  0  0  0  0  0
    4.0445    0.4929    0.0000 C   0  0  0  0  0  0  0  0  0  0  0  0
    3.8506    1.9803    0.0000 C   0  0  0  0  0  0  0  0  0  0  0  0
    2.4655    2.5561    0.0000 C   0  0  0  0  0  0  0  0  0  0  0  0
    2.2716    4.0435    0.0000 O   0  0  0  0  0  0  0  0  0  0  0  0
    1.2743    1.6444    0.0000 C   0  0  0  0  0  0  0  0  0  0  0  0
   -0.1108    2.2202    0.0000 O   0  0  0  0  0  0  0  0  0  0  0  0
    1.4682    0.1570    0.0000 C   0  0  0  0  0  0  0  0  0  0  0  0
    0.4709   -2.2420    0.0000 C   0  0  0  0  0  0  0  0  0  0  0  0
   -0.7202   -3.1537    0.0000 C   0  0  0  0  0  0  0  0  0  0  0  0
    0.2770   -0.7546    0.0000 C   0  0  0  0  0  0  0  0  0  0  0  0
   -1.1081   -0.1788    0.0000 C   0  0  0  0  0  0  0  0  0  0  0  0
   -1.3020    1.3086    0.0000 C   0  0  0  0  0  0  0  0  0  0  0  0
   -2.6871    1.8843    0.0000 C   0  0  0  0  0  0  0  0  0  0  0  0
   -3.8783    0.9727    0.0000 C   0  0  0  0  0  0  0  0  0  0  0  0
   -5.2634    1.5485    0.0000 O   0  0  0  0  0  0  0  0  0  0  0  0
   -3.6844   -0.5147    0.0000 C   0  0  0  0  0  0  0  0  0  0  0  0
   -4.8755   -1.4263    0.0000 O   0  0  0  0  0  0  0  0  0  0  0  0
   -2.2993   -1.0905    0.0000 C   0  0  0  0  0  0  0  0  0  0  0  0
  1  2  1  0
  2  3  1  0
  3  4  1  0
  4  5  1  0
  5  6  2  0
  6  7  1  0
  7  8  1  0
  7  9  2  0
  9 10  1  0
  9 11  1  0
  2 12  1  0
 12 13  1  0
 12 14  1  0
 14 15  1  0
 15 16  1  0
 16 17  2  0
 17 18  1  0
 18 19  1  0
 18 20  2  0
 20 21  1  0
 20 22  1  0
 11  4  2  0
 22 15  2  0
M  END
