
     RDKit          2D

 27 30  0  0  0  0  0  0  0  0999 V2000
   -6.3659    3.3725    0.0000 O   0  0  0  0  0  0  0  0  0  0  0  0
   -6.3378    1.8728    0.0000 C   0  0  0  0  0  0  0  0  0  0  0  0
   -7.5346    0.9685    0.0000 N   0  0  0  0  0  0  0  0  0  0  0  0
   -7.0444   -0.4492    0.0000 C   0  0  0  0  0  0  0  0  0  0  0  0
   -7.9032   -1.6790    0.0000 O   0  0  0  0  0  0  0  0  0  0  0  0
   -5.5447   -0.4210    0.0000 C   0  0  0  0  0  0  0  0  0  0  0  0
   -4.6404   -1.6178    0.0000 C   0  0  0  0  0  0  0  0  0  0  0  0
   -3.1518   -1.4331    0.0000 C   0  0  0  0  0  0  0  0  0  0  0  0
   -2.2476   -2.6299    0.0000 C   0  0  0  0  0  0  0  0  0  0  0  0
   -0.7590   -2.4451    0.0000 C   0  0  0  0  0  0  0  0  0  0  0  0
   -0.1747   -1.0636    0.0000 C   0  0  0  0  0  0  0  0  0  0  0  0
    1.3139   -0.8789    0.0000 C   0  0  0  0  0  0  0  0  0  0  0  0
    1.8982    0.5026    0.0000 C   0  0  0  0  0  0  0  0  0  0  0  0
    3.3868    0.6874    0.0000 O   0  0  0  0  0  0  0  0  0  0  0  0
    4.2911   -0.5094    0.0000 C   0  0  0  0  0  0  0  0  0  0  0  0
    5.7797   -0.3247    0.0000 C   0  0  0  0  0  0  0  0  0  0  0  0
    6.6839   -1.5215    0.0000 C   0  0  0  0  0  0  0  0  0  0  0  0
    8.1725   -1.3367    0.0000 C   0  0  0  0  0  0  0  0  0  0  0  0
    8.7568    0.0448    0.0000 C   0  0  0  0  0  0  0  0  0  0  0  0
    7.8526    1.2415    0.0000 C   0  0  0  0  0  0  0  0  0  0  0  0
    6.3640    1.0568    0.0000 C   0  0  0  0  0  0  0  0  0  0  0  0
    5.4597    2.2536    0.0000 F   0  0  0  0  0  0  0  0  0  0  0  0
    0.9940    1.6994    0.0000 C   0  0  0  0  0  0  0  0  0  0  0  0
   -0.4946    1.5147    0.0000 C   0  0  0  0  0  0  0  0  0  0  0  0
   -1.0789    0.1332    0.0000 C   0  0  0  0  0  0  0  0  0  0  0  0
   -2.5675   -0.0516    0.0000 C   0  0  0  0  0  0  0  0  0  0  0  0
   -5.1080    1.0140    0.0000 S   0  0  0  0  0  0  0  0  0  0  0  0
  1  2  2  0
  2  3  1  0
  3  4  1  0
  4  5  2  0
  4  6  1  0
  6  7  1  0
  7  8  1  0
  8  9  1  0
  9 10  2  0
 10 11  1  0
 11 12  2  0
 12 13  1  0
 13 14  1  0
 14 15  1  0
 15 16  1  0
 16 17  2  0
 17 18  1  0
 18 19  2  0
 19 20  1  0
 20 21  2  0
 21 22  1  0
 13 23  2  0
 23 24  1  0
 24 25  2  0
 25 26  1  0
  6 27  1  0
 27  2  1  0
 26  8  2  0
 25 11  1  0
 21 16  1  0
M  END
