
     RDKit          2D

 23 22  0  0  0  0  0  0  0  0999 V2000
   10.7358    3.2731    0.0000 C   0  0  0  0  0  0  0  0  0  0  0  0
    9.2378    3.1952    0.0000 C   0  0  0  0  0  0  0  0  0  0  0  0
    8.5563    1.8589    0.0000 C   0  0  0  0  0  0  0  0  0  0  0  0
    7.0583    1.7810    0.0000 C   0  0  0  0  0  0  0  0  0  0  0  0
    6.3768    0.4448    0.0000 C   0  0  0  0  0  0  0  0  0  0  0  0
    4.8788    0.3669    0.0000 C   0  0  0  0  0  0  0  0  0  0  0  0
    4.1973   -0.9694    0.0000 C   0  0  0  0  0  0  0  0  0  0  0  0
    2.6993   -1.0473    0.0000 C   0  0  0  0  0  0  0  0  0  0  0  0
    2.0178   -2.3835    0.0000 C   0  0  0  0  0  0  0  0  0  0  0  0
    0.5199   -2.4614    0.0000 C   0  0  0  0  0  0  0  0  0  0  0  0
   -0.2966   -1.2031    0.0000 C   0  0  0  0  0  0  0  0  0  0  0  0
   -1.7946   -1.2810    0.0000 C   0  0  0  0  0  0  0  0  0  0  0  0
   -2.6110   -0.0227    0.0000 C   0  0  0  0  0  0  0  0  0  0  0  0
   -4.1090   -0.1006    0.0000 C   0  0  0  0  0  0  0  0  0  0  0  0
   -4.9255    1.1577    0.0000 C   0  0  0  0  0  0  0  0  0  0  0  0
   -6.4235    1.0798    0.0000 C   0  0  0  0  0  0  0  0  0  0  0  0
   -7.2399    2.3381    0.0000 C   0  0  0  0  0  0  0  0  0  0  0  0
   -8.7379    2.2602    0.0000 C   0  0  0  0  0  0  0  0  0  0  0  0
   -9.4194    0.9240    0.0000 O   0  0  0  0  0  0  0  0  0  0  0  0
   -9.5544    3.5186    0.0000 O   0  0  0  0  0  0  0  0  0  0  0  0
   -0.1617   -3.7977    0.0000 N   0  0  0  0  0  0  0  0  0  0  0  0
    0.6548   -5.0560    0.0000 O   0  0  0  0  0  0  0  0  0  0  0  0
   -1.6596   -3.8756    0.0000 O   0  0  0  0  0  0  0  0  0  0  0  0
  1  2  1  0
  2  3  1  0
  3  4  1  0
  4  5  1  0
  5  6  1  0
  6  7  1  0
  7  8  1  0
  8  9  1  0
  9 10  2  0
 10 11  1  0
 11 12  1  0
 12 13  1  0
 13 14  1  0
 14 15  1  0
 15 16  1  0
 16 17  1  0
 17 18  1  0
 18 19  2  0
 18 20  1  0
 10 21  1  0
 21 22  2  0
 21 23  1  0
M  CHG  2  21   1  23  -1
M  END
