
     RDKit          2D

 28 31  0  0  0  0  0  0  0  0999 V2000
   -1.6761    4.2555    0.0000 O   0  0  0  0  0  0  0  0  0  0  0  0
   -0.3472    3.5597    0.0000 C   0  0  0  0  0  0  0  0  0  0  0  0
    0.9198    4.3627    0.0000 O   0  0  0  0  0  0  0  0  0  0  0  0
   -0.2853    2.0610    0.0000 C   0  0  0  0  0  0  0  0  0  0  0  0
   -1.4614    1.1300    0.0000 C   0  0  0  0  0  0  0  0  0  0  0  0
   -2.9059    1.5342    0.0000 S   0  0  0  0  0  0  0  0  0  0  0  0
   -3.9782    0.4854    0.0000 C   0  0  0  0  0  0  0  0  0  0  0  0
   -5.4227    0.8896    0.0000 C   0  0  0  0  0  0  0  0  0  0  0  0
   -6.4951   -0.1592    0.0000 C   0  0  0  0  0  0  0  0  0  0  0  0
   -6.1229   -1.6123    0.0000 C   0  0  0  0  0  0  0  0  0  0  0  0
   -4.6784   -2.0166    0.0000 C   0  0  0  0  0  0  0  0  0  0  0  0
   -3.6061   -0.9677    0.0000 C   0  0  0  0  0  0  0  0  0  0  0  0
   -0.9394   -0.2763    0.0000 C   0  0  0  0  0  0  0  0  0  0  0  0
   -1.6351   -1.6051    0.0000 C   0  0  0  0  0  0  0  0  0  0  0  0
   -0.8321   -2.8721    0.0000 C   0  0  0  0  0  0  0  0  0  0  0  0
   -1.5279   -4.2010    0.0000 Cl  0  0  0  0  0  0  0  0  0  0  0  0
    0.6666   -2.8102    0.0000 C   0  0  0  0  0  0  0  0  0  0  0  0
    1.3623   -1.4813    0.0000 C   0  0  0  0  0  0  0  0  0  0  0  0
    0.5594   -0.2143    0.0000 C   0  0  0  0  0  0  0  0  0  0  0  0
    0.9636    1.2302    0.0000 N   0  0  0  0  0  0  0  0  0  0  0  0
    2.3698    1.7522    0.0000 C   0  0  0  0  0  0  0  0  0  0  0  0
    3.5250    0.7953    0.0000 C   0  0  0  0  0  0  0  0  0  0  0  0
    3.2740   -0.6835    0.0000 C   0  0  0  0  0  0  0  0  0  0  0  0
    4.4292   -1.6403    0.0000 C   0  0  0  0  0  0  0  0  0  0  0  0
    5.8354   -1.1183    0.0000 C   0  0  0  0  0  0  0  0  0  0  0  0
    6.9906   -2.0751    0.0000 Cl  0  0  0  0  0  0  0  0  0  0  0  0
    6.0865    0.3605    0.0000 C   0  0  0  0  0  0  0  0  0  0  0  0
    4.9313    1.3174    0.0000 C   0  0  0  0  0  0  0  0  0  0  0  0
  1  2  2  0
  2  3  1  0
  2  4  1  0
  4  5  2  0
  5  6  1  0
  6  7  1  0
  7  8  2  0
  8  9  1  0
  9 10  2  0
 10 11  1  0
 11 12  2  0
  5 13  1  0
 13 14  1  0
 14 15  2  0
 15 16  1  0
 15 17  1  0
 17 18  2  0
 18 19  1  0
 19 20  1  0
 20 21  1  0
 21 22  1  0
 22 23  1  0
 23 24  2  0
 24 25  1  0
 25 26  1  0
 25 27  2  0
 27 28  1  0
 20  4  1  0
 28 22  2  0
 12  7  1  0
 19 13  2  0
M  END
