
     RDKit          2D

 40 44  0  0  0  0  0  0  0  0999 V2000
   -6.0692   -6.9562    0.0000 C   0  0  0  0  0  0  0  0  0  0  0  0
   -4.7225   -6.2956    0.0000 O   0  0  0  0  0  0  0  0  0  0  0  0
   -4.6213   -4.7990    0.0000 C   0  0  0  0  0  0  0  0  0  0  0  0
   -5.8667   -3.9631    0.0000 C   0  0  0  0  0  0  0  0  0  0  0  0
   -5.7655   -2.4665    0.0000 C   0  0  0  0  0  0  0  0  0  0  0  0
   -4.4188   -1.8059    0.0000 C   0  0  0  0  0  0  0  0  0  0  0  0
   -4.3175   -0.3093    0.0000 C   0  0  0  0  0  0  0  0  0  0  0  0
   -2.9709    0.3513    0.0000 C   0  0  0  0  0  0  0  0  0  0  0  0
   -1.7254   -0.4847    0.0000 N   0  0  0  0  0  0  0  0  0  0  0  0
   -0.3787    0.1760    0.0000 C   0  0  0  0  0  0  0  0  0  0  0  0
   -0.2775    1.6725    0.0000 C   0  0  0  0  0  0  0  0  0  0  0  0
    1.0692    2.3332    0.0000 C   0  0  0  0  0  0  0  0  0  0  0  0
    2.3147    1.4972    0.0000 N   0  0  0  0  0  0  0  0  0  0  0  0
    2.2135    0.0006    0.0000 C   0  0  0  0  0  0  0  0  0  0  0  0
    3.4589   -0.8354    0.0000 C   0  0  0  0  0  0  0  0  0  0  0  0
    4.8056   -0.1747    0.0000 C   0  0  0  0  0  0  0  0  0  0  0  0
    6.0511   -1.0107    0.0000 C   0  0  0  0  0  0  0  0  0  0  0  0
    5.9498   -2.5073    0.0000 C   0  0  0  0  0  0  0  0  0  0  0  0
    7.1953   -3.3433    0.0000 C   0  0  0  0  0  0  0  0  0  0  0  0
    8.5420   -2.6826    0.0000 C   0  0  0  0  0  0  0  0  0  0  0  0
    8.6432   -1.1861    0.0000 C   0  0  0  0  0  0  0  0  0  0  0  0
    7.3978   -0.3501    0.0000 C   0  0  0  0  0  0  0  0  0  0  0  0
    7.4990    1.1465    0.0000 O   0  0  0  0  0  0  0  0  0  0  0  0
    8.8457    1.8071    0.0000 C   0  0  0  0  0  0  0  0  0  0  0  0
    4.9068    1.3218    0.0000 C   0  0  0  0  0  0  0  0  0  0  0  0
    3.6614    2.1578    0.0000 C   0  0  0  0  0  0  0  0  0  0  0  0
   -1.5229    2.5085    0.0000 C   0  0  0  0  0  0  0  0  0  0  0  0
   -1.4217    4.0051    0.0000 C   0  0  0  0  0  0  0  0  0  0  0  0
   -2.6671    4.8411    0.0000 C   0  0  0  0  0  0  0  0  0  0  0  0
   -2.5659    6.3376    0.0000 O   0  0  0  0  0  0  0  0  0  0  0  0
   -1.2192    6.9982    0.0000 C   0  0  0  0  0  0  0  0  0  0  0  0
   -4.0138    4.1804    0.0000 C   0  0  0  0  0  0  0  0  0  0  0  0
   -5.2593    5.0164    0.0000 O   0  0  0  0  0  0  0  0  0  0  0  0
   -6.6060    4.3558    0.0000 C   0  0  0  0  0  0  0  0  0  0  0  0
   -4.1151    2.6839    0.0000 C   0  0  0  0  0  0  0  0  0  0  0  0
   -2.8696    1.8479    0.0000 C   0  0  0  0  0  0  0  0  0  0  0  0
   -3.1733   -2.6418    0.0000 C   0  0  0  0  0  0  0  0  0  0  0  0
   -3.2746   -4.1384    0.0000 C   0  0  0  0  0  0  0  0  0  0  0  0
   -2.0291   -4.9744    0.0000 O   0  0  0  0  0  0  0  0  0  0  0  0
   -0.6824   -4.3138    0.0000 C   0  0  0  0  0  0  0  0  0  0  0  0
  1  2  1  0
  2  3  1  0
  3  4  1  0
  4  5  2  0
  5  6  1  0
  6  7  1  0
  7  8  1  0
  8  9  1  0
  9 10  2  0
 10 11  1  0
 11 12  1  0
 12 13  1  0
 13 14  1  0
 14 15  1  0
 15 16  1  0
 16 17  1  0
 17 18  2  0
 18 19  1  0
 19 20  2  0
 20 21  1  0
 21 22  2  0
 22 23  1  0
 23 24  1  0
 16 25  1  0
 25 26  1  0
 11 27  2  0
 27 28  1  0
 28 29  2  0
 29 30  1  0
 30 31  1  0
 29 32  1  0
 32 33  1  0
 33 34  1  0
 32 35  2  0
 35 36  1  0
  6 37  2  0
 37 38  1  0
 38 39  1  0
 39 40  1  0
 38  3  2  0
 36  8  2  0
 26 13  1  0
 36 27  1  0
 22 17  1  0
M  END
