
     RDKit          2D

 28 31  0  0  0  0  0  0  0  0999 V2000
   -7.0844    2.0040    0.0000 C   0  0  0  0  0  0  0  0  0  0  0  0
   -7.1237    0.5045    0.0000 N   0  0  0  0  0  0  0  0  0  0  0  0
   -8.3599   -0.3450    0.0000 N   0  0  0  0  0  0  0  0  0  0  0  0
   -7.9340   -1.7833    0.0000 C   0  0  0  0  0  0  0  0  0  0  0  0
   -6.4345   -1.8226    0.0000 C   0  0  0  0  0  0  0  0  0  0  0  0
   -5.9337   -0.4087    0.0000 C   0  0  0  0  0  0  0  0  0  0  0  0
   -4.4955    0.0173    0.0000 C   0  0  0  0  0  0  0  0  0  0  0  0
   -3.4075   -1.0153    0.0000 C   0  0  0  0  0  0  0  0  0  0  0  0
   -1.9692   -0.5894    0.0000 C   0  0  0  0  0  0  0  0  0  0  0  0
   -1.6190    0.8692    0.0000 C   0  0  0  0  0  0  0  0  0  0  0  0
   -0.1807    1.2951    0.0000 S   0  0  0  0  0  0  0  0  0  0  0  0
    0.9073    0.2625    0.0000 C   0  0  0  0  0  0  0  0  0  0  0  0
    0.5570   -1.1960    0.0000 C   0  0  0  0  0  0  0  0  0  0  0  0
    1.6451   -2.2286    0.0000 C   0  0  0  0  0  0  0  0  0  0  0  0
    3.0833   -1.8027    0.0000 C   0  0  0  0  0  0  0  0  0  0  0  0
    3.4335   -0.3441    0.0000 C   0  0  0  0  0  0  0  0  0  0  0  0
    4.8718    0.0818    0.0000 C   0  0  0  0  0  0  0  0  0  0  0  0
    4.2026    1.4243    0.0000 C   0  0  0  0  0  0  0  0  0  0  0  0
    5.0305    2.6751    0.0000 N   0  0  0  0  0  0  0  0  0  0  0  0
    2.7054    1.5159    0.0000 O   0  0  0  0  0  0  0  0  0  0  0  0
    5.0415   -1.4085    0.0000 C   0  0  0  0  0  0  0  0  0  0  0  0
    6.4171   -2.0067    0.0000 C   0  0  0  0  0  0  0  0  0  0  0  0
    7.6229   -1.1146    0.0000 O   0  0  0  0  0  0  0  0  0  0  0  0
    7.4532    0.3758    0.0000 C   0  0  0  0  0  0  0  0  0  0  0  0
    6.0776    0.9740    0.0000 C   0  0  0  0  0  0  0  0  0  0  0  0
    2.3455    0.6885    0.0000 C   0  0  0  0  0  0  0  0  0  0  0  0
   -2.7070    1.9017    0.0000 C   0  0  0  0  0  0  0  0  0  0  0  0
   -4.1452    1.4758    0.0000 C   0  0  0  0  0  0  0  0  0  0  0  0
  1  2  1  0
  2  3  1  0
  3  4  2  0
  4  5  1  0
  5  6  2  0
  6  7  1  0
  7  8  1  0
  8  9  2  0
  9 10  1  0
 10 11  1  0
 11 12  1  0
 12 13  1  0
 13 14  2  0
 14 15  1  0
 15 16  2  0
 16 17  1  0
 17 18  1  0
 18 19  1  0
 18 20  2  0
 17 21  1  0
 21 22  1  0
 22 23  1  0
 23 24  1  0
 24 25  1  0
 16 26  1  0
 10 27  2  0
 27 28  1  0
  6  2  1  0
 28  7  2  0
 26 12  2  0
 25 17  1  0
M  END
