
     RDKit          2D

 20 22  0  0  0  0  0  0  0  0999 V2000
   -5.9818   -1.9954    0.0000 C   0  0  0  0  0  0  0  0  0  0  0  0
   -4.5259   -2.3567    0.0000 O   0  0  0  0  0  0  0  0  0  0  0  0
   -3.4851   -1.2766    0.0000 C   0  0  0  0  0  0  0  0  0  0  0  0
   -3.9001    0.1649    0.0000 C   0  0  0  0  0  0  0  0  0  0  0  0
   -2.8593    1.2450    0.0000 C   0  0  0  0  0  0  0  0  0  0  0  0
   -3.2743    2.6864    0.0000 O   0  0  0  0  0  0  0  0  0  0  0  0
   -1.4035    0.8837    0.0000 C   0  0  0  0  0  0  0  0  0  0  0  0
   -0.9885   -0.5578    0.0000 C   0  0  0  0  0  0  0  0  0  0  0  0
   -2.0293   -1.6379    0.0000 C   0  0  0  0  0  0  0  0  0  0  0  0
    0.4674   -0.9191    0.0000 O   0  0  0  0  0  0  0  0  0  0  0  0
    1.5082    0.1611    0.0000 C   0  0  0  0  0  0  0  0  0  0  0  0
    2.9640   -0.2002    0.0000 C   0  0  0  0  0  0  0  0  0  0  0  0
    3.3791   -1.6417    0.0000 C   0  0  0  0  0  0  0  0  0  0  0  0
    4.8349   -2.0030    0.0000 C   0  0  0  0  0  0  0  0  0  0  0  0
    5.8757   -0.9229    0.0000 C   0  0  0  0  0  0  0  0  0  0  0  0
    5.4607    0.5186    0.0000 C   0  0  0  0  0  0  0  0  0  0  0  0
    4.0049    0.8799    0.0000 C   0  0  0  0  0  0  0  0  0  0  0  0
    1.0932    1.6025    0.0000 C   0  0  0  0  0  0  0  0  0  0  0  0
   -0.3626    1.9638    0.0000 C   0  0  0  0  0  0  0  0  0  0  0  0
   -0.7777    3.4053    0.0000 O   0  0  0  0  0  0  0  0  0  0  0  0
  1  2  1  0
  2  3  1  0
  3  4  2  0
  4  5  1  0
  5  6  1  0
  5  7  2  0
  7  8  1  0
  8  9  2  0
  8 10  1  0
 10 11  1  0
 11 12  1  1
 12 13  2  0
 13 14  1  0
 14 15  2  0
 15 16  1  0
 16 17  2  0
 11 18  1  0
 18 19  1  0
 19 20  2  0
  9  3  1  0
 17 12  1  0
 19  7  1  0
M  END
