
     RDKit          2D

 25 27  0  0  0  0  0  0  0  0999 V2000
   -9.0007   -2.2367    0.0000 C   0  0  0  0  0  0  0  0  0  0  0  0
   -7.5387   -2.5725    0.0000 C   0  0  0  0  0  0  0  0  0  0  0  0
   -6.5170   -1.4744    0.0000 C   0  0  0  0  0  0  0  0  0  0  0  0
   -6.9571   -0.0404    0.0000 C   0  0  0  0  0  0  0  0  0  0  0  0
   -5.9353    1.0578    0.0000 C   0  0  0  0  0  0  0  0  0  0  0  0
   -4.4734    0.7220    0.0000 C   0  0  0  0  0  0  0  0  0  0  0  0
   -3.4516    1.8201    0.0000 C   0  0  0  0  0  0  0  0  0  0  0  0
   -1.9897    1.4843    0.0000 C   0  0  0  0  0  0  0  0  0  0  0  0
   -0.9679    2.5825    0.0000 O   0  0  0  0  0  0  0  0  0  0  0  0
    0.4940    2.2467    0.0000 C   0  0  0  0  0  0  0  0  0  0  0  0
    0.9342    0.8127    0.0000 C   0  0  0  0  0  0  0  0  0  0  0  0
    2.3961    0.4769    0.0000 C   0  0  0  0  0  0  0  0  0  0  0  0
    3.4179    1.5750    0.0000 C   0  0  0  0  0  0  0  0  0  0  0  0
    4.8798    1.2392    0.0000 C   0  0  0  0  0  0  0  0  0  0  0  0
    5.3200   -0.1948    0.0000 C   0  0  0  0  0  0  0  0  0  0  0  0
    6.7388   -0.6815    0.0000 S   0  0  0  0  0  0  0  0  0  0  0  0
    6.7143   -2.1813    0.0000 C   0  0  0  0  0  0  0  0  0  0  0  0
    7.9132   -3.0827    0.0000 O   0  0  0  0  0  0  0  0  0  0  0  0
    5.2803   -2.6215    0.0000 N   0  0  0  0  0  0  0  0  0  0  0  0
    4.4186   -1.3937    0.0000 C   0  0  0  0  0  0  0  0  0  0  0  0
    2.9188   -1.3692    0.0000 O   0  0  0  0  0  0  0  0  0  0  0  0
    2.9778    3.0090    0.0000 C   0  0  0  0  0  0  0  0  0  0  0  0
    1.5158    3.3448    0.0000 C   0  0  0  0  0  0  0  0  0  0  0  0
   -4.0332   -0.7120    0.0000 N   0  0  0  0  0  0  0  0  0  0  0  0
   -5.0550   -1.8102    0.0000 C   0  0  0  0  0  0  0  0  0  0  0  0
  1  2  1  0
  2  3  1  0
  3  4  1  0
  4  5  2  0
  5  6  1  0
  6  7  1  0
  7  8  1  0
  8  9  1  0
  9 10  1  0
 10 11  1  0
 11 12  2  0
 12 13  1  0
 13 14  1  0
 14 15  1  0
 15 16  1  0
 16 17  1  0
 17 18  2  0
 17 19  1  0
 19 20  1  0
 20 21  2  0
 13 22  2  0
 22 23  1  0
  6 24  2  0
 24 25  1  0
 25  3  2  0
 23 10  2  0
 20 15  1  0
M  END
