
     RDKit          2D

 13 13  0  0  0  0  0  0  0  0999 V2000
   -3.8971    0.2885    0.0000 C   0  0  0  0  0  0  0  0  0  0  0  0
   -2.5981   -0.4615    0.0000 C   0  0  0  0  0  0  0  0  0  0  0  0
   -2.5981   -1.9615    0.0000 C   0  0  0  0  0  0  0  0  0  0  0  0
   -1.2990    0.2885    0.0000 C   0  0  0  0  0  0  0  0  0  0  0  0
   -1.2990    1.7885    0.0000 C   0  0  0  0  0  0  0  0  0  0  0  0
    0.0000    2.5385    0.0000 C   0  0  0  0  0  0  0  0  0  0  0  0
    1.2990    1.7885    0.0000 C   0  0  0  0  0  0  0  0  0  0  0  0
    1.2990    0.2885    0.0000 C   0  0  0  0  0  0  0  0  0  0  0  0
    2.5981   -0.4615    0.0000 C   0  0  0  0  0  0  0  0  0  0  0  0
    2.5981   -1.9615    0.0000 C   0  0  0  0  0  0  0  0  0  0  0  0
    3.8971    0.2885    0.0000 C   0  0  0  0  0  0  0  0  0  0  0  0
   -0.0000   -0.4615    0.0000 C   0  0  0  0  0  0  0  0  0  0  0  0
   -0.0000   -1.9615    0.0000 O   0  0  0  0  0  0  0  0  0  0  0  0
  1  2  1  0
  2  3  1  0
  2  4  1  0
  4  5  1  0
  5  6  2  0
  6  7  1  0
  7  8  2  0
  8  9  1  0
  9 10  1  0
  9 11  1  0
  8 12  1  0
 12 13  1  0
 12  4  2  0
M  END
