
     RDKit          2D

 31 34  0  0  0  0  0  0  0  0999 V2000
   -4.7975    3.6680    0.0000 C   0  0  0  0  0  0  0  0  0  0  0  0
   -5.7556    2.5138    0.0000 C   0  0  0  0  0  0  0  0  0  0  0  0
   -5.2351    1.1070    0.0000 O   0  0  0  0  0  0  0  0  0  0  0  0
   -6.1932   -0.0471    0.0000 C   0  0  0  0  0  0  0  0  0  0  0  0
   -5.6727   -1.4539    0.0000 C   0  0  0  0  0  0  0  0  0  0  0  0
   -4.1941   -1.7066    0.0000 C   0  0  0  0  0  0  0  0  0  0  0  0
   -3.2360   -0.5524    0.0000 C   0  0  0  0  0  0  0  0  0  0  0  0
   -1.7575   -0.8050    0.0000 C   0  0  0  0  0  0  0  0  0  0  0  0
   -1.2370   -2.2118    0.0000 C   0  0  0  0  0  0  0  0  0  0  0  0
    0.2416   -2.4645    0.0000 O   0  0  0  0  0  0  0  0  0  0  0  0
    1.1997   -1.3103    0.0000 C   0  0  0  0  0  0  0  0  0  0  0  0
    2.6783   -1.5629    0.0000 C   0  0  0  0  0  0  0  0  0  0  0  0
    3.6363   -0.4087    0.0000 N   0  0  0  0  0  0  0  0  0  0  0  0
    5.1149   -0.6614    0.0000 C   0  0  0  0  0  0  0  0  0  0  0  0
    5.6354   -2.0682    0.0000 C   0  0  0  0  0  0  0  0  0  0  0  0
    7.1140   -2.3208    0.0000 C   0  0  0  0  0  0  0  0  0  0  0  0
    8.0720   -1.1666    0.0000 C   0  0  0  0  0  0  0  0  0  0  0  0
    7.5515    0.2402    0.0000 C   0  0  0  0  0  0  0  0  0  0  0  0
    6.0730    0.4928    0.0000 C   0  0  0  0  0  0  0  0  0  0  0  0
    5.5525    1.8996    0.0000 O   0  0  0  0  0  0  0  0  0  0  0  0
    4.0739    2.1522    0.0000 C   0  0  0  0  0  0  0  0  0  0  0  0
    3.5534    3.5590    0.0000 C   0  0  0  0  0  0  0  0  0  0  0  0
    2.0748    3.8116    0.0000 C   0  0  0  0  0  0  0  0  0  0  0  0
    1.1167    2.6575    0.0000 C   0  0  0  0  0  0  0  0  0  0  0  0
    1.6373    1.2507    0.0000 C   0  0  0  0  0  0  0  0  0  0  0  0
    3.1158    0.9981    0.0000 C   0  0  0  0  0  0  0  0  0  0  0  0
   -2.1950   -3.3660    0.0000 C   0  0  0  0  0  0  0  0  0  0  0  0
   -3.6736   -3.1134    0.0000 C   0  0  0  0  0  0  0  0  0  0  0  0
   -7.6718    0.2055    0.0000 C   0  0  0  0  0  0  0  0  0  0  0  0
   -8.6298   -0.9487    0.0000 O   0  0  0  0  0  0  0  0  0  0  0  0
   -8.1923    1.6123    0.0000 O   0  0  0  0  0  0  0  0  0  0  0  0
  1  2  1  0
  2  3  1  0
  3  4  1  0
  4  5  1  6
  5  6  1  0
  6  7  1  0
  7  8  2  0
  8  9  1  0
  9 10  1  0
 10 11  1  0
 11 12  1  0
 12 13  1  0
 13 14  1  0
 14 15  2  0
 15 16  1  0
 16 17  2  0
 17 18  1  0
 18 19  2  0
 19 20  1  0
 20 21  1  0
 21 22  2  0
 22 23  1  0
 23 24  2  0
 24 25  1  0
 25 26  2  0
  9 27  2  0
 27 28  1  0
  4 29  1  0
 29 30  2  0
 29 31  1  0
 28  6  2  0
 26 13  1  0
 19 14  1  0
 26 21  1  0
M  END
