
     RDKit          2D

 28 31  0  0  0  0  0  0  0  0999 V2000
  -10.0450   -1.4616    0.0000 C   0  0  0  0  0  0  0  0  0  0  0  0
   -8.6128   -1.9077    0.0000 O   0  0  0  0  0  0  0  0  0  0  0  0
   -7.5105   -0.8904    0.0000 C   0  0  0  0  0  0  0  0  0  0  0  0
   -7.8402    0.5729    0.0000 C   0  0  0  0  0  0  0  0  0  0  0  0
   -6.7379    1.5901    0.0000 C   0  0  0  0  0  0  0  0  0  0  0  0
   -5.3057    1.1441    0.0000 C   0  0  0  0  0  0  0  0  0  0  0  0
   -4.0159    1.9099    0.0000 N   0  0  0  0  0  0  0  0  0  0  0  0
   -2.8890    0.9199    0.0000 C   0  0  0  0  0  0  0  0  0  0  0  0
   -1.4257    1.2496    0.0000 C   0  0  0  0  0  0  0  0  0  0  0  0
   -0.4085    0.1473    0.0000 O   0  0  0  0  0  0  0  0  0  0  0  0
    1.0548    0.4770    0.0000 C   0  0  0  0  0  0  0  0  0  0  0  0
    2.0720   -0.6253    0.0000 C   0  0  0  0  0  0  0  0  0  0  0  0
    3.5353   -0.2956    0.0000 C   0  0  0  0  0  0  0  0  0  0  0  0
    3.9814    1.1366    0.0000 C   0  0  0  0  0  0  0  0  0  0  0  0
    5.4447    1.4664    0.0000 C   0  0  0  0  0  0  0  0  0  0  0  0
    6.4620    0.3640    0.0000 C   0  0  0  0  0  0  0  0  0  0  0  0
    7.9517    0.5390    0.0000 S   0  0  0  0  0  0  0  0  0  0  0  0
    8.5785   -0.8238    0.0000 C   0  0  0  0  0  0  0  0  0  0  0  0
   10.0494   -1.1177    0.0000 O   0  0  0  0  0  0  0  0  0  0  0  0
    7.4761   -1.8410    0.0000 N   0  0  0  0  0  0  0  0  0  0  0  0
    6.1680   -1.1069    0.0000 C   0  0  0  0  0  0  0  0  0  0  0  0
    4.8053   -1.7337    0.0000 O   0  0  0  0  0  0  0  0  0  0  0  0
    2.9642    2.2390    0.0000 C   0  0  0  0  0  0  0  0  0  0  0  0
    1.5009    1.9092    0.0000 C   0  0  0  0  0  0  0  0  0  0  0  0
   -3.4824   -0.4578    0.0000 N   0  0  0  0  0  0  0  0  0  0  0  0
   -2.7165   -1.7476    0.0000 C   0  0  0  0  0  0  0  0  0  0  0  0
   -4.9759   -0.3192    0.0000 C   0  0  0  0  0  0  0  0  0  0  0  0
   -6.0783   -1.3365    0.0000 C   0  0  0  0  0  0  0  0  0  0  0  0
  1  2  1  0
  2  3  1  0
  3  4  1  0
  4  5  2  0
  5  6  1  0
  6  7  1  0
  7  8  2  0
  8  9  1  0
  9 10  1  0
 10 11  1  0
 11 12  1  0
 12 13  2  0
 13 14  1  0
 14 15  1  0
 15 16  1  0
 16 17  1  0
 17 18  1  0
 18 19  2  0
 18 20  1  0
 20 21  1  0
 21 22  2  0
 14 23  2  0
 23 24  1  0
  8 25  1  0
 25 26  1  0
 25 27  1  0
 27 28  1  0
 28  3  2  0
 27  6  2  0
 24 11  2  0
 21 16  1  0
M  END
