
     RDKit          2D

 33 36  0  0  0  0  0  0  0  0999 V2000
   -8.8179    2.2755    0.0000 C   0  0  0  0  0  0  0  0  0  0  0  0
   -8.5380    0.8019    0.0000 C   0  0  0  0  0  0  0  0  0  0  0  0
   -7.1218    0.3075    0.0000 C   0  0  0  0  0  0  0  0  0  0  0  0
   -6.6274    1.7236    0.0000 O   0  0  0  0  0  0  0  0  0  0  0  0
   -5.7056   -0.1870    0.0000 C   0  0  0  0  0  0  0  0  0  0  0  0
   -5.2732   -1.6233    0.0000 N   0  0  0  0  0  0  0  0  0  0  0  0
   -3.7736   -1.6559    0.0000 N   0  0  0  0  0  0  0  0  0  0  0  0
   -3.2792   -0.2397    0.0000 C   0  0  0  0  0  0  0  0  0  0  0  0
   -1.8428    0.1927    0.0000 N   0  0  0  0  0  0  0  0  0  0  0  0
   -0.7502   -0.8350    0.0000 C   0  0  0  0  0  0  0  0  0  0  0  0
    0.6861   -0.4026    0.0000 C   0  0  0  0  0  0  0  0  0  0  0  0
    1.7788   -1.4303    0.0000 C   0  0  0  0  0  0  0  0  0  0  0  0
    3.2151   -0.9979    0.0000 C   0  0  0  0  0  0  0  0  0  0  0  0
    3.5588    0.4622    0.0000 C   0  0  0  0  0  0  0  0  0  0  0  0
    4.9951    0.8946    0.0000 C   0  0  0  0  0  0  0  0  0  0  0  0
    6.0877   -0.1331    0.0000 C   0  0  0  0  0  0  0  0  0  0  0  0
    5.7441   -1.5931    0.0000 C   0  0  0  0  0  0  0  0  0  0  0  0
    6.8367   -2.6208    0.0000 C   0  0  0  0  0  0  0  0  0  0  0  0
    8.2730   -2.1884    0.0000 C   0  0  0  0  0  0  0  0  0  0  0  0
    9.3656   -3.2161    0.0000 F   0  0  0  0  0  0  0  0  0  0  0  0
    8.6167   -0.7283    0.0000 C   0  0  0  0  0  0  0  0  0  0  0  0
    7.5241    0.2994    0.0000 C   0  0  0  0  0  0  0  0  0  0  0  0
    5.3388    2.3547    0.0000 C   0  0  0  0  0  0  0  0  0  0  0  0
    4.2461    3.3824    0.0000 C   0  0  0  0  0  0  0  0  0  0  0  0
    4.5898    4.8425    0.0000 O   0  0  0  0  0  0  0  0  0  0  0  0
    2.8098    2.9500    0.0000 O   0  0  0  0  0  0  0  0  0  0  0  0
    2.4661    1.4899    0.0000 C   0  0  0  0  0  0  0  0  0  0  0  0
    1.0298    1.0575    0.0000 C   0  0  0  0  0  0  0  0  0  0  0  0
   -4.4732    0.6681    0.0000 O   0  0  0  0  0  0  0  0  0  0  0  0
   -7.6162   -1.1087    0.0000 C   0  0  0  0  0  0  0  0  0  0  0  0
   -8.1107   -2.5249    0.0000 F   0  0  0  0  0  0  0  0  0  0  0  0
   -6.2001   -1.6031    0.0000 F   0  0  0  0  0  0  0  0  0  0  0  0
   -9.0324   -0.6143    0.0000 F   0  0  0  0  0  0  0  0  0  0  0  0
  1  2  1  0
  2  3  1  0
  3  4  1  1
  3  5  1  0
  5  6  2  0
  6  7  1  0
  7  8  2  0
  8  9  1  0
  9 10  1  0
 10 11  1  0
 11 12  1  0
 12 13  2  0
 13 14  1  0
 14 15  1  0
 15 16  1  0
 16 17  1  0
 17 18  2  0
 18 19  1  0
 19 20  1  0
 19 21  2  0
 21 22  1  0
 15 23  2  0
 23 24  1  0
 24 25  2  0
 24 26  1  0
 26 27  1  0
 27 28  1  0
  8 29  1  0
  3 30  1  0
 30 31  1  0
 30 32  1  0
 30 33  1  0
 29  5  1  0
 28 11  2  0
 27 14  2  0
 22 16  2  0
M  END
