
     RDKit          2D

 29 32  0  0  0  0  0  0  0  0999 V2000
   -8.3087    0.6517    0.0000 C   0  0  0  0  0  0  0  0  0  0  0  0
   -7.2103   -0.3698    0.0000 O   0  0  0  0  0  0  0  0  0  0  0  0
   -5.7764    0.0706    0.0000 C   0  0  0  0  0  0  0  0  0  0  0  0
   -5.4409    1.5326    0.0000 C   0  0  0  0  0  0  0  0  0  0  0  0
   -4.0070    1.9730    0.0000 C   0  0  0  0  0  0  0  0  0  0  0  0
   -2.9087    0.9515    0.0000 C   0  0  0  0  0  0  0  0  0  0  0  0
   -3.2442   -0.5105    0.0000 C   0  0  0  0  0  0  0  0  0  0  0  0
   -2.1458   -1.5321    0.0000 C   0  0  0  0  0  0  0  0  0  0  0  0
   -0.7119   -1.0917    0.0000 N   0  0  0  0  0  0  0  0  0  0  0  0
    0.4872   -1.9928    0.0000 C   0  0  0  0  0  0  0  0  0  0  0  0
    0.4630   -3.4926    0.0000 C   0  0  0  0  0  0  0  0  0  0  0  0
    1.7497   -4.2635    0.0000 O   0  0  0  0  0  0  0  0  0  0  0  0
   -0.8480   -4.2215    0.0000 O   0  0  0  0  0  0  0  0  0  0  0  0
    1.7148   -1.1309    0.0000 C   0  0  0  0  0  0  0  0  0  0  0  0
    3.1337   -1.6174    0.0000 S   0  0  0  0  0  0  0  0  0  0  0  0
    4.2645   -0.6318    0.0000 C   0  0  0  0  0  0  0  0  0  0  0  0
    5.6834   -1.1183    0.0000 C   0  0  0  0  0  0  0  0  0  0  0  0
    6.8142   -0.1327    0.0000 C   0  0  0  0  0  0  0  0  0  0  0  0
    6.5261    1.3393    0.0000 C   0  0  0  0  0  0  0  0  0  0  0  0
    5.1071    1.8258    0.0000 C   0  0  0  0  0  0  0  0  0  0  0  0
    3.9764    0.8403    0.0000 C   0  0  0  0  0  0  0  0  0  0  0  0
    1.2744    0.3030    0.0000 C   0  0  0  0  0  0  0  0  0  0  0  0
    2.0453    1.5898    0.0000 C   0  0  0  0  0  0  0  0  0  0  0  0
    1.3163    2.9008    0.0000 C   0  0  0  0  0  0  0  0  0  0  0  0
    2.0872    4.1875    0.0000 Cl  0  0  0  0  0  0  0  0  0  0  0  0
   -0.1835    2.9250    0.0000 C   0  0  0  0  0  0  0  0  0  0  0  0
   -0.9544    1.6382    0.0000 C   0  0  0  0  0  0  0  0  0  0  0  0
   -0.2254    0.3273    0.0000 C   0  0  0  0  0  0  0  0  0  0  0  0
   -4.6781   -0.9510    0.0000 C   0  0  0  0  0  0  0  0  0  0  0  0
  1  2  1  0
  2  3  1  0
  3  4  2  0
  4  5  1  0
  5  6  2  0
  6  7  1  0
  7  8  1  0
  8  9  1  0
  9 10  1  0
 10 11  1  0
 11 12  2  0
 11 13  1  0
 10 14  2  0
 14 15  1  0
 15 16  1  0
 16 17  2  0
 17 18  1  0
 18 19  2  0
 19 20  1  0
 20 21  2  0
 14 22  1  0
 22 23  1  0
 23 24  2  0
 24 25  1  0
 24 26  1  0
 26 27  2  0
 27 28  1  0
  7 29  2  0
 29  3  1  0
 28  9  1  0
 21 16  1  0
 28 22  2  0
M  END
