
     RDKit          2D

 27 30  0  0  0  0  0  0  0  0999 V2000
    1.1165   -4.2688    0.0000 O   0  0  0  0  0  0  0  0  0  0  0  0
   -0.1596   -3.4803    0.0000 C   0  0  0  0  0  0  0  0  0  0  0  0
   -1.4804   -4.1912    0.0000 O   0  0  0  0  0  0  0  0  0  0  0  0
   -0.1148   -1.9810    0.0000 C   0  0  0  0  0  0  0  0  0  0  0  0
    1.1245   -1.1359    0.0000 C   0  0  0  0  0  0  0  0  0  0  0  0
    2.5366   -1.6419    0.0000 S   0  0  0  0  0  0  0  0  0  0  0  0
    3.6808   -0.6719    0.0000 C   0  0  0  0  0  0  0  0  0  0  0  0
    5.0929   -1.1778    0.0000 C   0  0  0  0  0  0  0  0  0  0  0  0
    6.2371   -0.2079    0.0000 C   0  0  0  0  0  0  0  0  0  0  0  0
    5.9692    1.2680    0.0000 C   0  0  0  0  0  0  0  0  0  0  0  0
    4.5571    1.7739    0.0000 C   0  0  0  0  0  0  0  0  0  0  0  0
    3.4129    0.8040    0.0000 C   0  0  0  0  0  0  0  0  0  0  0  0
    0.7038    0.3038    0.0000 C   0  0  0  0  0  0  0  0  0  0  0  0
    1.4923    1.5799    0.0000 C   0  0  0  0  0  0  0  0  0  0  0  0
    0.7814    2.9008    0.0000 C   0  0  0  0  0  0  0  0  0  0  0  0
    1.5699    4.1768    0.0000 Cl  0  0  0  0  0  0  0  0  0  0  0  0
   -0.7179    2.9456    0.0000 C   0  0  0  0  0  0  0  0  0  0  0  0
   -1.5064    1.6695    0.0000 C   0  0  0  0  0  0  0  0  0  0  0  0
   -0.7955    0.3486    0.0000 C   0  0  0  0  0  0  0  0  0  0  0  0
   -1.3014   -1.0635    0.0000 N   0  0  0  0  0  0  0  0  0  0  0  0
   -2.7412   -1.4842    0.0000 C   0  0  0  0  0  0  0  0  0  0  0  0
   -3.8255   -0.4476    0.0000 C   0  0  0  0  0  0  0  0  0  0  0  0
   -3.4699    1.0096    0.0000 C   0  0  0  0  0  0  0  0  0  0  0  0
   -4.5542    2.0462    0.0000 C   0  0  0  0  0  0  0  0  0  0  0  0
   -5.9939    1.6255    0.0000 C   0  0  0  0  0  0  0  0  0  0  0  0
   -6.3495    0.1682    0.0000 C   0  0  0  0  0  0  0  0  0  0  0  0
   -5.2653   -0.8683    0.0000 C   0  0  0  0  0  0  0  0  0  0  0  0
  1  2  2  0
  2  3  1  0
  2  4  1  0
  4  5  2  0
  5  6  1  0
  6  7  1  0
  7  8  2  0
  8  9  1  0
  9 10  2  0
 10 11  1  0
 11 12  2  0
  5 13  1  0
 13 14  1  0
 14 15  2  0
 15 16  1  0
 15 17  1  0
 17 18  2  0
 18 19  1  0
 19 20  1  0
 20 21  1  0
 21 22  1  0
 22 23  2  0
 23 24  1  0
 24 25  2  0
 25 26  1  0
 26 27  2  0
 20  4  1  0
 27 22  1  0
 12  7  1  0
 19 13  2  0
M  END
