
     RDKit          2D

 41 45  0  0  0  0  0  0  0  0999 V2000
    0.4603    3.0556    0.0000 C   0  0  0  0  0  0  0  0  0  0  0  0
    0.0606    1.6098    0.0000 C   0  0  0  0  0  0  0  0  0  0  0  0
   -1.3440    1.0834    0.0000 C   0  0  0  0  0  0  0  0  0  0  0  0
   -2.5955    1.9103    0.0000 C   0  0  0  0  0  0  0  0  0  0  0  0
   -1.2774   -0.4151    0.0000 N   0  0  0  0  0  0  0  0  0  0  0  0
   -2.4506   -1.3498    0.0000 C   0  0  0  0  0  0  0  0  0  0  0  0
   -3.8467   -0.8011    0.0000 C   0  0  0  0  0  0  0  0  0  0  0  0
   -4.0695    0.6822    0.0000 C   0  0  0  0  0  0  0  0  0  0  0  0
   -5.4656    1.2309    0.0000 C   0  0  0  0  0  0  0  0  0  0  0  0
   -6.6388    0.2962    0.0000 C   0  0  0  0  0  0  0  0  0  0  0  0
   -8.0348    0.8449    0.0000 C   0  0  0  0  0  0  0  0  0  0  0  0
   -8.2577    2.3282    0.0000 C   0  0  0  0  0  0  0  0  0  0  0  0
   -9.6537    2.8769    0.0000 C   0  0  0  0  0  0  0  0  0  0  0  0
  -10.8269    1.9422    0.0000 C   0  0  0  0  0  0  0  0  0  0  0  0
  -10.6041    0.4589    0.0000 C   0  0  0  0  0  0  0  0  0  0  0  0
   -9.2080   -0.0898    0.0000 C   0  0  0  0  0  0  0  0  0  0  0  0
   -8.9851   -1.5732    0.0000 C   0  0  0  0  0  0  0  0  0  0  0  0
   -7.5891   -2.1218    0.0000 O   0  0  0  0  0  0  0  0  0  0  0  0
  -10.1583   -2.5078    0.0000 O   0  0  0  0  0  0  0  0  0  0  0  0
   -6.4159   -1.1871    0.0000 C   0  0  0  0  0  0  0  0  0  0  0  0
   -5.0198   -1.7358    0.0000 C   0  0  0  0  0  0  0  0  0  0  0  0
    0.1683   -0.8149    0.0000 C   0  0  0  0  0  0  0  0  0  0  0  0
    0.8387   -2.1567    0.0000 C   0  0  0  0  0  0  0  0  0  0  0  0
    2.3359   -2.2472    0.0000 C   0  0  0  0  0  0  0  0  0  0  0  0
    3.1629   -0.9957    0.0000 C   0  0  0  0  0  0  0  0  0  0  0  0
    4.6602   -1.0861    0.0000 C   0  0  0  0  0  0  0  0  0  0  0  0
    5.4871    0.1654    0.0000 O   0  0  0  0  0  0  0  0  0  0  0  0
    5.3305   -2.4280    0.0000 N   0  0  0  0  0  0  0  0  0  0  0  0
    6.8278   -2.5184    0.0000 C   0  0  0  0  0  0  0  0  0  0  0  0
    7.4981   -3.8603    0.0000 C   0  0  0  0  0  0  0  0  0  0  0  0
    7.6547   -1.2669    0.0000 C   0  0  0  0  0  0  0  0  0  0  0  0
    9.1520   -1.3573    0.0000 C   0  0  0  0  0  0  0  0  0  0  0  0
    9.9789   -0.1059    0.0000 C   0  0  0  0  0  0  0  0  0  0  0  0
    9.3086    1.2360    0.0000 C   0  0  0  0  0  0  0  0  0  0  0  0
   10.1355    2.4875    0.0000 N   0  0  0  0  0  0  0  0  0  0  0  0
    9.4652    3.8294    0.0000 O   0  0  0  0  0  0  0  0  0  0  0  0
   11.6328    2.3971    0.0000 O   0  0  0  0  0  0  0  0  0  0  0  0
    7.8113    1.3264    0.0000 C   0  0  0  0  0  0  0  0  0  0  0  0
    6.9844    0.0750    0.0000 C   0  0  0  0  0  0  0  0  0  0  0  0
    2.4925    0.3462    0.0000 C   0  0  0  0  0  0  0  0  0  0  0  0
    0.9953    0.4366    0.0000 C   0  0  0  0  0  0  0  0  0  0  0  0
  1  2  1  0
  2  3  2  0
  3  4  1  0
  3  5  1  0
  5  6  1  0
  6  7  1  0
  7  8  1  0
  8  9  2  0
  9 10  1  0
 10 11  1  0
 11 12  2  0
 12 13  1  0
 13 14  2  0
 14 15  1  0
 15 16  2  0
 16 17  1  0
 17 18  2  0
 17 19  1  0
 10 20  2  0
 20 21  1  0
  5 22  1  0
 22 23  1  0
 23 24  2  0
 24 25  1  0
 25 26  1  0
 26 27  2  0
 26 28  1  0
 28 29  1  0
 29 30  1  6
 29 31  1  0
 31 32  1  0
 32 33  2  0
 33 34  1  0
 34 35  1  0
 35 36  2  0
 35 37  1  0
 34 38  2  0
 38 39  1  0
 25 40  2  0
 40 41  1  0
 41  2  1  0
 21  7  2  0
 41 22  2  0
 16 11  1  0
 39 31  2  0
M  CHG  2  35   1  37  -1
M  END
