
     RDKit          2D

 42 46  0  0  0  0  0  0  0  0999 V2000
    0.2577    2.9932    0.0000 C   0  0  0  0  0  0  0  0  0  0  0  0
   -0.1607    1.5528    0.0000 C   0  0  0  0  0  0  0  0  0  0  0  0
   -1.5720    1.0446    0.0000 C   0  0  0  0  0  0  0  0  0  0  0  0
   -2.8127    1.8876    0.0000 C   0  0  0  0  0  0  0  0  0  0  0  0
   -1.5247   -0.4547    0.0000 N   0  0  0  0  0  0  0  0  0  0  0  0
   -2.7099   -1.3742    0.0000 C   0  0  0  0  0  0  0  0  0  0  0  0
   -4.0987   -0.8075    0.0000 C   0  0  0  0  0  0  0  0  0  0  0  0
   -4.3024    0.6786    0.0000 C   0  0  0  0  0  0  0  0  0  0  0  0
   -5.6913    1.2452    0.0000 C   0  0  0  0  0  0  0  0  0  0  0  0
   -6.8764    0.3258    0.0000 C   0  0  0  0  0  0  0  0  0  0  0  0
   -8.2653    0.8924    0.0000 C   0  0  0  0  0  0  0  0  0  0  0  0
   -8.4690    2.3785    0.0000 C   0  0  0  0  0  0  0  0  0  0  0  0
   -9.8578    2.9452    0.0000 C   0  0  0  0  0  0  0  0  0  0  0  0
  -11.0430    2.0257    0.0000 C   0  0  0  0  0  0  0  0  0  0  0  0
  -10.8393    0.5396    0.0000 C   0  0  0  0  0  0  0  0  0  0  0  0
   -9.4505   -0.0270    0.0000 C   0  0  0  0  0  0  0  0  0  0  0  0
   -9.2468   -1.5131    0.0000 C   0  0  0  0  0  0  0  0  0  0  0  0
   -7.8579   -2.0798    0.0000 O   0  0  0  0  0  0  0  0  0  0  0  0
  -10.4319   -2.4326    0.0000 O   0  0  0  0  0  0  0  0  0  0  0  0
   -6.6728   -1.1603    0.0000 C   0  0  0  0  0  0  0  0  0  0  0  0
   -5.2839   -1.7270    0.0000 C   0  0  0  0  0  0  0  0  0  0  0  0
   -0.0843   -0.8731    0.0000 C   0  0  0  0  0  0  0  0  0  0  0  0
    0.5687   -2.2235    0.0000 C   0  0  0  0  0  0  0  0  0  0  0  0
    2.0647   -2.3332    0.0000 C   0  0  0  0  0  0  0  0  0  0  0  0
    2.9077   -1.0925    0.0000 C   0  0  0  0  0  0  0  0  0  0  0  0
    4.4037   -1.2023    0.0000 C   0  0  0  0  0  0  0  0  0  0  0  0
    5.2467    0.0384    0.0000 O   0  0  0  0  0  0  0  0  0  0  0  0
    5.0566   -2.5527    0.0000 N   0  0  0  0  0  0  0  0  0  0  0  0
    6.5526   -2.6624    0.0000 C   0  0  0  0  0  0  0  0  0  0  0  0
    7.2056   -4.0129    0.0000 C   0  0  0  0  0  0  0  0  0  0  0  0
    7.3956   -1.4218    0.0000 C   0  0  0  0  0  0  0  0  0  0  0  0
    8.8916   -1.5315    0.0000 C   0  0  0  0  0  0  0  0  0  0  0  0
    9.7346   -0.2908    0.0000 C   0  0  0  0  0  0  0  0  0  0  0  0
    9.0817    1.0596    0.0000 C   0  0  0  0  0  0  0  0  0  0  0  0
    9.9247    2.3003    0.0000 C   0  0  0  0  0  0  0  0  0  0  0  0
   11.1654    1.4573    0.0000 C   0  0  0  0  0  0  0  0  0  0  0  0
    8.6840    3.1433    0.0000 C   0  0  0  0  0  0  0  0  0  0  0  0
   10.7677    3.5410    0.0000 C   0  0  0  0  0  0  0  0  0  0  0  0
    7.5857    1.1694    0.0000 C   0  0  0  0  0  0  0  0  0  0  0  0
    6.7427   -0.0713    0.0000 C   0  0  0  0  0  0  0  0  0  0  0  0
    2.2547    0.2579    0.0000 C   0  0  0  0  0  0  0  0  0  0  0  0
    0.7588    0.3676    0.0000 C   0  0  0  0  0  0  0  0  0  0  0  0
  1  2  1  0
  2  3  2  0
  3  4  1  0
  3  5  1  0
  5  6  1  0
  6  7  1  0
  7  8  1  0
  8  9  2  0
  9 10  1  0
 10 11  1  0
 11 12  2  0
 12 13  1  0
 13 14  2  0
 14 15  1  0
 15 16  2  0
 16 17  1  0
 17 18  2  0
 17 19  1  0
 10 20  2  0
 20 21  1  0
  5 22  1  0
 22 23  1  0
 23 24  2  0
 24 25  1  0
 25 26  1  0
 26 27  2  0
 26 28  1  0
 28 29  1  0
 29 30  1  6
 29 31  1  0
 31 32  1  0
 32 33  2  0
 33 34  1  0
 34 35  1  0
 35 36  1  0
 35 37  1  0
 35 38  1  0
 34 39  2  0
 39 40  1  0
 25 41  2  0
 41 42  1  0
 42  2  1  0
 21  7  2  0
 42 22  2  0
 16 11  1  0
 40 31  2  0
M  END
