
     RDKit          2D

 24 26  0  0  0  0  0  0  0  0999 V2000
    6.5665   -1.1156    0.0000 C   0  0  0  0  0  0  0  0  0  0  0  0
    6.2122    0.3420    0.0000 S   0  0  0  0  0  0  0  0  0  0  0  0
    4.7727    0.7639    0.0000 C   0  0  0  0  0  0  0  0  0  0  0  0
    3.6876   -0.2717    0.0000 C   0  0  0  0  0  0  0  0  0  0  0  0
    2.2482    0.1502    0.0000 C   0  0  0  0  0  0  0  0  0  0  0  0
    1.8939    1.6078    0.0000 C   0  0  0  0  0  0  0  0  0  0  0  0
    0.4544    2.0297    0.0000 C   0  0  0  0  0  0  0  0  0  0  0  0
   -0.6307    0.9941    0.0000 C   0  0  0  0  0  0  0  0  0  0  0  0
   -2.1063    1.2633    0.0000 C   0  0  0  0  0  0  0  0  0  0  0  0
   -2.7559    2.6153    0.0000 C   0  0  0  0  0  0  0  0  0  0  0  0
   -2.8183   -0.0570    0.0000 C   0  0  0  0  0  0  0  0  0  0  0  0
   -4.3049   -0.2570    0.0000 C   0  0  0  0  0  0  0  0  0  0  0  0
   -5.2215    0.9305    0.0000 C   0  0  0  0  0  0  0  0  0  0  0  0
   -4.6514    2.3179    0.0000 O   0  0  0  0  0  0  0  0  0  0  0  0
   -6.7081    0.7304    0.0000 O   0  0  0  0  0  0  0  0  0  0  0  0
   -1.7827   -1.1421    0.0000 C   0  0  0  0  0  0  0  0  0  0  0  0
   -1.8962   -2.6378    0.0000 C   0  0  0  0  0  0  0  0  0  0  0  0
   -0.6576   -3.4839    0.0000 C   0  0  0  0  0  0  0  0  0  0  0  0
   -0.7710   -4.9796    0.0000 F   0  0  0  0  0  0  0  0  0  0  0  0
    0.6945   -2.8343    0.0000 C   0  0  0  0  0  0  0  0  0  0  0  0
    0.8079   -1.3386    0.0000 C   0  0  0  0  0  0  0  0  0  0  0  0
   -0.4307   -0.4925    0.0000 C   0  0  0  0  0  0  0  0  0  0  0  0
    2.9790    2.6434    0.0000 C   0  0  0  0  0  0  0  0  0  0  0  0
    4.4184    2.2215    0.0000 C   0  0  0  0  0  0  0  0  0  0  0  0
  1  2  1  0
  2  3  1  0
  3  4  1  0
  4  5  2  0
  5  6  1  0
  6  7  1  0
  7  8  2  0
  8  9  1  0
  9 10  1  0
  9 11  2  0
 11 12  1  0
 12 13  1  0
 13 14  2  0
 13 15  1  0
 11 16  1  0
 16 17  1  0
 17 18  2  0
 18 19  1  0
 18 20  1  0
 20 21  2  0
 21 22  1  0
  6 23  2  0
 23 24  1  0
 24  3  2  0
 22  8  1  0
 22 16  2  0
M  END
