
     RDKit          2D

 28 29  0  0  0  0  0  0  0  0999 V2000
   -8.1261    2.6157    0.0000 C   0  0  0  0  0  0  0  0  0  0  0  0
   -7.9633    1.1245    0.0000 C   0  0  0  0  0  0  0  0  0  0  0  0
   -6.5905    0.5199    0.0000 O   0  0  0  0  0  0  0  0  0  0  0  0
   -6.4278   -0.9712    0.0000 C   0  0  0  0  0  0  0  0  0  0  0  0
   -5.0550   -1.5758    0.0000 C   0  0  0  0  0  0  0  0  0  0  0  0
   -3.8450   -0.6892    0.0000 C   0  0  0  0  0  0  0  0  0  0  0  0
   -4.0078    0.8019    0.0000 C   0  0  0  0  0  0  0  0  0  0  0  0
   -2.7979    1.6885    0.0000 C   0  0  0  0  0  0  0  0  0  0  0  0
   -1.4251    1.0839    0.0000 C   0  0  0  0  0  0  0  0  0  0  0  0
   -0.2151    1.9704    0.0000 O   0  0  0  0  0  0  0  0  0  0  0  0
    1.1576    1.3659    0.0000 C   0  0  0  0  0  0  0  0  0  0  0  0
    2.3676    2.2524    0.0000 C   0  0  0  0  0  0  0  0  0  0  0  0
    3.7404    1.6478    0.0000 C   0  0  0  0  0  0  0  0  0  0  0  0
    3.9032    0.1567    0.0000 C   0  0  0  0  0  0  0  0  0  0  0  0
    5.2759   -0.4479    0.0000 C   0  0  0  0  0  0  0  0  0  0  0  0
    6.4859    0.4387    0.0000 C   0  0  0  0  0  0  0  0  0  0  0  0
    7.8587   -0.1659    0.0000 O   0  0  0  0  0  0  0  0  0  0  0  0
    8.0215   -1.6571    0.0000 S   0  0  0  0  0  0  0  0  0  0  0  0
    8.1842   -3.1482    0.0000 C   0  0  0  0  0  0  0  0  0  0  0  0
    6.5303   -1.8199    0.0000 O   0  0  0  0  0  0  0  0  0  0  0  0
    9.5126   -1.4943    0.0000 O   0  0  0  0  0  0  0  0  0  0  0  0
    6.3231    1.9298    0.0000 C   0  0  0  0  0  0  0  0  0  0  0  0
    4.9503    2.5344    0.0000 C   0  0  0  0  0  0  0  0  0  0  0  0
   -1.2623   -0.4073    0.0000 C   0  0  0  0  0  0  0  0  0  0  0  0
   -2.4723   -1.2938    0.0000 C   0  0  0  0  0  0  0  0  0  0  0  0
   -7.6377   -1.8578    0.0000 C   0  0  0  0  0  0  0  0  0  0  0  0
   -7.4749   -3.3489    0.0000 O   0  0  0  0  0  0  0  0  0  0  0  0
   -9.0105   -1.2532    0.0000 O   0  0  0  0  0  0  0  0  0  0  0  0
  1  2  1  0
  2  3  1  0
  3  4  1  0
  4  5  1  1
  5  6  1  0
  6  7  1  0
  7  8  2  0
  8  9  1  0
  9 10  1  0
 10 11  1  0
 11 12  1  0
 12 13  1  0
 13 14  1  0
 14 15  2  0
 15 16  1  0
 16 17  1  0
 17 18  1  0
 18 19  1  0
 18 20  2  0
 18 21  2  0
 16 22  2  0
 22 23  1  0
  9 24  2  0
 24 25  1  0
  4 26  1  0
 26 27  2  0
 26 28  1  0
 25  6  2  0
 23 13  2  0
M  END
