
     RDKit          2D

 13 12  0  0  0  0  0  0  0  0999 V2000
    5.6179    0.4821    0.0000 C   0  0  0  0  0  0  0  0  0  0  0  0
    4.5024   -0.5207    0.0000 C   0  0  0  0  0  0  0  0  0  0  0  0
    3.0762   -0.0562    0.0000 C   0  0  0  0  0  0  0  0  0  0  0  0
    1.9607   -1.0590    0.0000 C   0  0  0  0  0  0  0  0  0  0  0  0
    0.5345   -0.5945    0.0000 Sn  0  0  0  0  0  4  0  0  0  0  0  0
   -0.5810   -1.5973    0.0000 C   0  0  0  0  0  0  0  0  0  0  0  0
   -2.0072   -1.1328    0.0000 C   0  0  0  0  0  0  0  0  0  0  0  0
   -3.1227   -2.1357    0.0000 C   0  0  0  0  0  0  0  0  0  0  0  0
   -4.5489   -1.6711    0.0000 C   0  0  0  0  0  0  0  0  0  0  0  0
    0.2237    0.8730    0.0000 C   0  0  0  0  0  0  0  0  0  0  0  0
   -1.2026    1.3376    0.0000 C   0  0  0  0  0  0  0  0  0  0  0  0
   -1.5134    2.8050    0.0000 C   0  0  0  0  0  0  0  0  0  0  0  0
   -2.9396    3.2696    0.0000 C   0  0  0  0  0  0  0  0  0  0  0  0
  1  2  1  0
  2  3  1  0
  3  4  1  0
  4  5  1  0
  5  6  1  0
  6  7  1  0
  7  8  1  0
  8  9  1  0
  5 10  1  0
 10 11  1  0
 11 12  1  0
 12 13  1  0
M  END
