
     RDKit          2D

 31 34  0  0  0  0  0  0  0  0999 V2000
   -8.7919    0.0195    0.0000 C   0  0  0  0  0  0  0  0  0  0  0  0
   -7.3197   -0.2684    0.0000 C   0  0  0  0  0  0  0  0  0  0  0  0
   -6.3344    0.8626    0.0000 C   0  0  0  0  0  0  0  0  0  0  0  0
   -6.8212    2.2814    0.0000 C   0  0  0  0  0  0  0  0  0  0  0  0
   -4.8623    0.5748    0.0000 C   0  0  0  0  0  0  0  0  0  0  0  0
   -4.3755   -0.8440    0.0000 C   0  0  0  0  0  0  0  0  0  0  0  0
   -5.3608   -1.9750    0.0000 C   0  0  0  0  0  0  0  0  0  0  0  0
   -4.8740   -3.3938    0.0000 C   0  0  0  0  0  0  0  0  0  0  0  0
   -6.8329   -1.6872    0.0000 C   0  0  0  0  0  0  0  0  0  0  0  0
   -7.8183   -2.8182    0.0000 O   0  0  0  0  0  0  0  0  0  0  0  0
   -2.9033   -1.1318    0.0000 C   0  0  0  0  0  0  0  0  0  0  0  0
   -1.9180   -0.0009    0.0000 C   0  0  0  0  0  0  0  0  0  0  0  0
   -2.4048    1.4180    0.0000 C   0  0  0  0  0  0  0  0  0  0  0  0
   -2.3770    2.9177    0.0000 C   0  0  0  0  0  0  0  0  0  0  0  0
   -0.9230    1.6510    0.0000 C   0  0  0  0  0  0  0  0  0  0  0  0
    0.0197    0.4842    0.0000 O   0  0  0  0  0  0  0  0  0  0  0  0
    1.5015    0.7173    0.0000 C   0  0  0  0  0  0  0  0  0  0  0  0
    2.4442   -0.4495    0.0000 C   0  0  0  0  0  0  0  0  0  0  0  0
    3.9260   -0.2165    0.0000 C   0  0  0  0  0  0  0  0  0  0  0  0
    4.4650    1.1833    0.0000 C   0  0  0  0  0  0  0  0  0  0  0  0
    5.9468    1.4163    0.0000 C   0  0  0  0  0  0  0  0  0  0  0  0
    6.8895    0.2496    0.0000 C   0  0  0  0  0  0  0  0  0  0  0  0
    8.3876    0.3265    0.0000 S   0  0  0  0  0  0  0  0  0  0  0  0
    8.9236   -1.0745    0.0000 C   0  0  0  0  0  0  0  0  0  0  0  0
   10.3720   -1.4643    0.0000 O   0  0  0  0  0  0  0  0  0  0  0  0
    7.7568   -2.0172    0.0000 N   0  0  0  0  0  0  0  0  0  0  0  0
    6.4997   -1.1989    0.0000 C   0  0  0  0  0  0  0  0  0  0  0  0
    5.0988   -1.7349    0.0000 O   0  0  0  0  0  0  0  0  0  0  0  0
    3.5223    2.3501    0.0000 C   0  0  0  0  0  0  0  0  0  0  0  0
    2.0405    2.1170    0.0000 C   0  0  0  0  0  0  0  0  0  0  0  0
   -3.8769    1.7058    0.0000 O   0  0  0  0  0  0  0  0  0  0  0  0
  1  2  1  0
  2  3  2  0
  3  4  1  0
  3  5  1  0
  5  6  2  0
  6  7  1  0
  7  8  1  0
  7  9  2  0
  9 10  1  0
  6 11  1  0
 11 12  1  0
 12 13  1  0
 13 14  1  0
 13 15  1  0
 15 16  1  0
 16 17  1  0
 17 18  1  0
 18 19  2  0
 19 20  1  0
 20 21  1  0
 21 22  1  0
 22 23  1  0
 23 24  1  0
 24 25  2  0
 24 26  1  0
 26 27  1  0
 27 28  2  0
 20 29  2  0
 29 30  1  0
 13 31  1  0
  9  2  1  0
 30 17  2  0
 31  5  1  0
 27 22  1  0
M  END
