
     RDKit          2D

 37 41  0  0  0  0  0  0  0  0999 V2000
    0.4915    4.2906    0.0000 C   0  0  0  0  0  0  0  0  0  0  0  0
    0.4694    2.7907    0.0000 C   0  0  0  0  0  0  0  0  0  0  0  0
   -0.7570    1.9270    0.0000 C   0  0  0  0  0  0  0  0  0  0  0  0
   -2.1766    2.4116    0.0000 C   0  0  0  0  0  0  0  0  0  0  0  0
   -0.3146    0.4938    0.0000 N   0  0  0  0  0  0  0  0  0  0  0  0
   -1.2140   -0.7066    0.0000 C   0  0  0  0  0  0  0  0  0  0  0  0
   -2.7033   -0.5278    0.0000 C   0  0  0  0  0  0  0  0  0  0  0  0
   -3.2932    0.8513    0.0000 C   0  0  0  0  0  0  0  0  0  0  0  0
   -4.7825    1.0301    0.0000 C   0  0  0  0  0  0  0  0  0  0  0  0
   -5.6820   -0.1703    0.0000 C   0  0  0  0  0  0  0  0  0  0  0  0
   -7.1713    0.0085    0.0000 C   0  0  0  0  0  0  0  0  0  0  0  0
   -7.7611    1.3877    0.0000 C   0  0  0  0  0  0  0  0  0  0  0  0
   -9.2504    1.5665    0.0000 C   0  0  0  0  0  0  0  0  0  0  0  0
  -10.1499    0.3661    0.0000 C   0  0  0  0  0  0  0  0  0  0  0  0
   -9.5601   -1.0131    0.0000 C   0  0  0  0  0  0  0  0  0  0  0  0
   -8.0707   -1.1919    0.0000 C   0  0  0  0  0  0  0  0  0  0  0  0
   -7.4809   -2.5710    0.0000 C   0  0  0  0  0  0  0  0  0  0  0  0
   -5.9916   -2.7498    0.0000 O   0  0  0  0  0  0  0  0  0  0  0  0
   -8.3804   -3.7714    0.0000 O   0  0  0  0  0  0  0  0  0  0  0  0
   -5.0921   -1.5494    0.0000 C   0  0  0  0  0  0  0  0  0  0  0  0
   -3.6028   -1.7282    0.0000 C   0  0  0  0  0  0  0  0  0  0  0  0
    1.1853    0.4716    0.0000 C   0  0  0  0  0  0  0  0  0  0  0  0
    2.1724   -0.6578    0.0000 C   0  0  0  0  0  0  0  0  0  0  0  0
    3.6441   -0.3676    0.0000 C   0  0  0  0  0  0  0  0  0  0  0  0
    4.1286    1.0520    0.0000 C   0  0  0  0  0  0  0  0  0  0  0  0
    5.6003    1.3422    0.0000 C   0  0  0  0  0  0  0  0  0  0  0  0
    6.0848    2.7618    0.0000 O   0  0  0  0  0  0  0  0  0  0  0  0
    6.5874    0.2128    0.0000 N   0  0  0  0  0  0  0  0  0  0  0  0
    8.0591    0.5030    0.0000 C   0  0  0  0  0  0  0  0  0  0  0  0
    9.0462   -0.6264    0.0000 C   0  0  0  0  0  0  0  0  0  0  0  0
    8.5617   -2.0460    0.0000 C   0  0  0  0  0  0  0  0  0  0  0  0
    9.5488   -3.1754    0.0000 C   0  0  0  0  0  0  0  0  0  0  0  0
   11.0205   -2.8852    0.0000 C   0  0  0  0  0  0  0  0  0  0  0  0
   11.5050   -1.4656    0.0000 N   0  0  0  0  0  0  0  0  0  0  0  0
   10.5179   -0.3362    0.0000 C   0  0  0  0  0  0  0  0  0  0  0  0
    3.1415    2.1814    0.0000 C   0  0  0  0  0  0  0  0  0  0  0  0
    1.6698    1.8912    0.0000 C   0  0  0  0  0  0  0  0  0  0  0  0
  1  2  1  0
  2  3  2  0
  3  4  1  0
  3  5  1  0
  5  6  1  0
  6  7  1  0
  7  8  1  0
  8  9  2  0
  9 10  1  0
 10 11  1  0
 11 12  2  0
 12 13  1  0
 13 14  2  0
 14 15  1  0
 15 16  2  0
 16 17  1  0
 17 18  2  0
 17 19  1  0
 10 20  2  0
 20 21  1  0
  5 22  1  0
 22 23  1  0
 23 24  2  0
 24 25  1  0
 25 26  1  0
 26 27  2  0
 26 28  1  0
 28 29  1  0
 29 30  1  0
 30 31  2  0
 31 32  1  0
 32 33  2  0
 33 34  1  0
 34 35  2  0
 25 36  2  0
 36 37  1  0
 37  2  1  0
 21  7  2  0
 37 22  2  0
 16 11  1  0
 35 30  1  0
M  END
