
     RDKit          2D

 29 32  0  0  0  0  0  0  0  0999 V2000
   -3.8561    3.2545    0.0000 C   0  0  0  0  0  0  0  0  0  0  0  0
   -3.7329    1.7595    0.0000 O   0  0  0  0  0  0  0  0  0  0  0  0
   -4.9659    0.9054    0.0000 C   0  0  0  0  0  0  0  0  0  0  0  0
   -3.9106   -0.1606    0.0000 C   0  0  0  0  0  0  0  0  0  0  0  0
   -4.3061   -1.6075    0.0000 C   0  0  0  0  0  0  0  0  0  0  0  0
   -3.2508   -2.6735    0.0000 C   0  0  0  0  0  0  0  0  0  0  0  0
   -3.6463   -4.1204    0.0000 F   0  0  0  0  0  0  0  0  0  0  0  0
   -1.8000   -2.2926    0.0000 C   0  0  0  0  0  0  0  0  0  0  0  0
   -1.4045   -0.8456    0.0000 C   0  0  0  0  0  0  0  0  0  0  0  0
    0.0464   -0.4647    0.0000 O   0  0  0  0  0  0  0  0  0  0  0  0
    1.1017   -1.5307    0.0000 C   0  0  0  0  0  0  0  0  0  0  0  0
    2.5525   -1.1497    0.0000 C   0  0  0  0  0  0  0  0  0  0  0  0
    3.6078   -2.2157    0.0000 C   0  0  0  0  0  0  0  0  0  0  0  0
    5.0586   -1.8347    0.0000 C   0  0  0  0  0  0  0  0  0  0  0  0
    5.4541   -0.3878    0.0000 C   0  0  0  0  0  0  0  0  0  0  0  0
    4.3988    0.6782    0.0000 C   0  0  0  0  0  0  0  0  0  0  0  0
    4.7943    2.1251    0.0000 C   0  0  0  0  0  0  0  0  0  0  0  0
    6.2451    2.5060    0.0000 C   0  0  0  0  0  0  0  0  0  0  0  0
    7.3005    1.4400    0.0000 C   0  0  0  0  0  0  0  0  0  0  0  0
    8.7513    1.8210    0.0000 O   0  0  0  0  0  0  0  0  0  0  0  0
    6.9050   -0.0069    0.0000 N   0  0  0  0  0  0  0  0  0  0  0  0
    7.9603   -1.0728    0.0000 C   0  0  0  0  0  0  0  0  0  0  0  0
    2.9480    0.2972    0.0000 C   0  0  0  0  0  0  0  0  0  0  0  0
   -2.4598    0.2203    0.0000 C   0  0  0  0  0  0  0  0  0  0  0  0
   -5.8325   -0.3190    0.0000 C   0  0  0  0  0  0  0  0  0  0  0  0
   -7.3261   -0.1808    0.0000 C   0  0  0  0  0  0  0  0  0  0  0  0
   -7.9532    1.1818    0.0000 O   0  0  0  0  0  0  0  0  0  0  0  0
   -7.0866    2.4062    0.0000 C   0  0  0  0  0  0  0  0  0  0  0  0
   -5.5930    2.2680    0.0000 C   0  0  0  0  0  0  0  0  0  0  0  0
  1  2  1  0
  2  3  1  0
  3  4  1  0
  4  5  2  0
  5  6  1  0
  6  7  1  0
  6  8  2  0
  8  9  1  0
  9 10  1  0
 10 11  1  0
 11 12  1  0
 12 13  1  0
 13 14  2  0
 14 15  1  0
 15 16  2  0
 16 17  1  0
 17 18  2  0
 18 19  1  0
 19 20  2  0
 19 21  1  0
 21 22  1  0
 16 23  1  0
  9 24  2  0
  3 25  1  0
 25 26  1  0
 26 27  1  0
 27 28  1  0
 28 29  1  0
 29  3  1  0
 24  4  1  0
 23 12  2  0
 21 15  1  0
M  END
