
     RDKit          2D

 16 17  0  0  0  0  0  0  0  0999 V2000
   -2.1399    2.0778    0.0000 C   0  0  0  0  0  0  0  0  0  0  0  0
   -1.6095    0.6747    0.0000 C   0  0  0  0  0  0  0  0  0  0  0  0
   -0.1292    0.4325    0.0000 C   0  0  0  0  0  0  0  0  0  0  0  0
    0.5450   -0.9075    0.0000 C   0  0  0  0  0  0  0  0  0  0  0  0
    2.0277   -0.6804    0.0000 C   0  0  0  0  0  0  0  0  0  0  0  0
    3.1886   -1.6303    0.0000 C   0  0  0  0  0  0  0  0  0  0  0  0
    4.5917   -1.0999    0.0000 C   0  0  0  0  0  0  0  0  0  0  0  0
    4.8339    0.3804    0.0000 C   0  0  0  0  0  0  0  0  0  0  0  0
    3.6730    1.3303    0.0000 C   0  0  0  0  0  0  0  0  0  0  0  0
    2.2699    0.7999    0.0000 C   0  0  0  0  0  0  0  0  0  0  0  0
    0.9369    1.4877    0.0000 S   0  0  0  0  0  0  0  0  0  0  0  0
   -2.5594   -0.4862    0.0000 N   0  0  0  0  0  0  0  0  0  0  0  0
   -2.0290   -1.8893    0.0000 O   0  0  0  0  0  0  0  0  0  0  0  0
   -4.0397   -0.2440    0.0000 C   0  0  0  0  0  0  0  0  0  0  0  0
   -4.9896   -1.4049    0.0000 N   0  0  0  0  0  0  0  0  0  0  0  0
   -4.5701    1.1591    0.0000 O   0  0  0  0  0  0  0  0  0  0  0  0
  1  2  1  0
  2  3  1  0
  3  4  2  0
  4  5  1  0
  5  6  2  0
  6  7  1  0
  7  8  2  0
  8  9  1  0
  9 10  2  0
 10 11  1  0
  2 12  1  0
 12 13  1  0
 12 14  1  0
 14 15  1  0
 14 16  2  0
 11  3  1  0
 10  5  1  0
M  END
