
     RDKit          2D

 30 33  0  0  0  0  0  0  0  0999 V2000
   -6.1745    3.2315    0.0000 C   0  0  0  0  0  0  0  0  0  0  0  0
   -7.0448    2.0098    0.0000 C   0  0  0  0  0  0  0  0  0  0  0  0
   -6.4220    0.6453    0.0000 N   0  0  0  0  0  0  0  0  0  0  0  0
   -7.2923   -0.5764    0.0000 C   0  0  0  0  0  0  0  0  0  0  0  0
   -8.7855   -0.4335    0.0000 O   0  0  0  0  0  0  0  0  0  0  0  0
   -6.6695   -1.9410    0.0000 C   0  0  0  0  0  0  0  0  0  0  0  0
   -5.1763   -2.0839    0.0000 C   0  0  0  0  0  0  0  0  0  0  0  0
   -4.3060   -0.8622    0.0000 C   0  0  0  0  0  0  0  0  0  0  0  0
   -2.8128   -1.0052    0.0000 C   0  0  0  0  0  0  0  0  0  0  0  0
   -1.9425    0.2165    0.0000 C   0  0  0  0  0  0  0  0  0  0  0  0
   -0.4493    0.0736    0.0000 C   0  0  0  0  0  0  0  0  0  0  0  0
    0.1735   -1.2910    0.0000 O   0  0  0  0  0  0  0  0  0  0  0  0
    1.6667   -1.4339    0.0000 C   0  0  0  0  0  0  0  0  0  0  0  0
    2.2895   -2.7985    0.0000 C   0  0  0  0  0  0  0  0  0  0  0  0
    3.7827   -2.9414    0.0000 C   0  0  0  0  0  0  0  0  0  0  0  0
    4.4055   -4.3060    0.0000 F   0  0  0  0  0  0  0  0  0  0  0  0
    4.6531   -1.7197    0.0000 C   0  0  0  0  0  0  0  0  0  0  0  0
    4.0302   -0.3551    0.0000 C   0  0  0  0  0  0  0  0  0  0  0  0
    4.9006    0.8665    0.0000 C   0  0  0  0  0  0  0  0  0  0  0  0
    3.5463    1.5115    0.0000 O   0  0  0  0  0  0  0  0  0  0  0  0
    3.4278    3.0068    0.0000 C   0  0  0  0  0  0  0  0  0  0  0  0
    5.9526   -0.2027    0.0000 C   0  0  0  0  0  0  0  0  0  0  0  0
    7.4046    0.1737    0.0000 C   0  0  0  0  0  0  0  0  0  0  0  0
    7.8046    1.6193    0.0000 O   0  0  0  0  0  0  0  0  0  0  0  0
    6.7526    2.6886    0.0000 C   0  0  0  0  0  0  0  0  0  0  0  0
    5.3006    2.3122    0.0000 C   0  0  0  0  0  0  0  0  0  0  0  0
    2.5371   -0.2122    0.0000 C   0  0  0  0  0  0  0  0  0  0  0  0
   -2.5653    1.5811    0.0000 C   0  0  0  0  0  0  0  0  0  0  0  0
   -4.0585    1.7240    0.0000 C   0  0  0  0  0  0  0  0  0  0  0  0
   -4.9288    0.5023    0.0000 C   0  0  0  0  0  0  0  0  0  0  0  0
  1  2  1  0
  2  3  1  0
  3  4  1  0
  4  5  2  0
  4  6  1  0
  6  7  2  0
  7  8  1  0
  8  9  1  0
  9 10  2  0
 10 11  1  0
 11 12  1  0
 12 13  1  0
 13 14  1  0
 14 15  2  0
 15 16  1  0
 15 17  1  0
 17 18  2  0
 18 19  1  0
 19 20  1  0
 20 21  1  0
 19 22  1  0
 22 23  1  0
 23 24  1  0
 24 25  1  0
 25 26  1  0
 18 27  1  0
 10 28  1  0
 28 29  2  0
 29 30  1  0
 30  3  1  0
 30  8  2  0
 27 13  2  0
 26 19  1  0
M  END
